Mass spectrum: Fluometuron; LC-ESI-QFT; MS2; CE: 120; R=35000; [M-H]-
Name: Fluometuron
Name: 1,1-dimethyl-3-[3-(trifluoromethyl)phenyl]urea
Formula: C10H11F3N2O
Exact mass: 232.08235
SMILES: CN(C)C(=O)NC1=CC=CC(=C1)C(F)(F)F
InChI: InChI=1S/C10H11F3N2O/c1-15(2)9(16)14-8-5-3-4-7(6-8)10(11,12)13/h3-6H,1-2H3,(H,14,16)
Instrument: Q Exactive Plus Orbitrap Thermo Scientific
Instrument type: LC-ESI-QFT
Ms type: MS2
Ion mode: NEGATIVE
Ionization: ESI
Fragmentation mode: HCD
Collision energy: 120 (nominal)
Resolution: 35000
Column name: XBridge C18 3.5um, 2.1x50mm, Waters
Retention time: 8.0 min
Base peak: 231.0748
Precursor m/z: 231.0751
Precursor type: [M-H]-
m/z	relative intensity	assigned
50.0036	28	C3N-
65.9986	3	C3NO-
66.9989	3	C4F-
68.9958	19	CF3-
73.0085	9	C6H-
74.0037	28	C5N-
90.0351	5	C6H4N-
90.9991	3	C6F-
92.9958	14	C3F3-
98.0036	999	C7N-
100.0194	27	C7H2N-
118.01	114	C7HFN-
118.9938	4	C7FO-
120.0256	42	C7H3FN-
138.0161	14	C7H2F2N-
146.0049	62	C8HFNO-
158.0224	2	C7H3F3N-
160.038	37	C7H5F3N-
166.0114	5	C8H2F2NO-
186.0172	5	C8H3F3NO-
200.0205	13	C8H3F3N2O-
