Mass spectrum: Microcystin-LA; LC-ESI-QFT; MS2; CE: 75; R=35000; [M+H]+
Name: Microcystin-LA
Name: (5R,8S,11R,12S,15S,18S,19S,22R)-18-[(1E,3E,5S,6S)-6-methoxy-3,5-dimethyl-7-phenylhepta-1,3-dienyl]-1,5,12,15,19-pentamethyl-2-methylidene-8-(2-methylpropyl)-3,6,9,13,16,20,25-heptaoxo-1,4,7,10,14,17,21-heptazacyclopentacosane-11,22-dicarboxylic acid
Formula: C46H67N7O12
Exact mass: 909.48477
SMILES: O=C2N[C@@H](\C=C\C(=C\[C@H](C)[C@@H](OC)Cc1ccccc1)C)[C@@H](C(=O)N[C@@H](C(=O)O)CCC(=O)N(/C(=C)C(=O)N[C@@H](C(=O)N[C@H](C(=O)N[C@@H](C(=O)O)[C@@H](C(=O)N[C@H]2C)C)CC(C)C)C)C)C
InChI: InChI=1S/C46H67N7O12/c1-24(2)21-35-44(60)52-38(46(63)64)28(6)40(56)47-29(7)41(57)49-33(18-17-25(3)22-26(4)36(65-11)23-32-15-13-12-14-16-32)27(5)39(55)50-34(45(61)62)19-20-37(54)53(10)31(9)43(59)48-30(8)42(58)51-35/h12-18,22,24,26-30,33-36,38H,9,19-21,23H2,1-8,10-11H3,(H,47,56)(H,48,59)(H,49,57)(H,50,55)(H,51,58)(H,52,60)(H,61,62)(H,63,64)/b18-17+,25-22+/t26-,27-,28-,29-,30+,33-,34+,35-,36-,38+/m0/s1
Instrument: Q Exactive Orbitrap Thermo Scientific
Instrument type: LC-ESI-QFT
Ms type: MS2
Ion mode: POSITIVE
Ionization: ESI
Fragmentation mode: HCD
Collision energy: 75 (nominal)
Resolution: 35000
Column name: XBridge C18 3.5um, 2.1x50mm, Waters
Retention time: 12.2 min
Base peak: 910.4915
Precursor m/z: 910.492
Precursor type: [M+H]+
m/z	relative intensity	assigned
65.0386	49	C5H5+
67.0417	1	C4H5N+
67.0542	29	C5H7+
68.0494	8	C4H6N+
69.0335	51	C4H5O+
69.0698	20	C5H9+
70.0651	11	C4H8N+
71.0603	1	C3H7N2+
74.0236	27	C2H4NO2+
77.0384	23	C6H5+
78.0464	2	C6H6+
79.0542	264	C6H7+
80.0494	42	C5H6N+
81.0334	5	C5H5O+
81.0573	1	C5H7N+
81.0699	21	C6H9+
82.0287	30	C4H4NO+
82.0651	167	C5H8N+
83.0491	1	C5H7O+
84.0443	206	C4H6NO+
84.0807	24	C5H10N+
85.0284	17	C4H5O2+
85.0648	1	C5H9O+
86.06	19	C4H8NO+
86.0964	273	C5H12N+
88.0393	4	C3H6NO2+
89.0709	5	C3H9N2O+
91.0542	706	C7H7+
92.0495	1	C6H6N+
92.0619	10	C7H8+
93.0698	265	C7H9+
94.065	45	C6H8N+
94.0775	3	C7H10+
95.0491	194	C6H7O+
95.0855	23	C7H11+
96.0444	6	C5H6NO+
96.0681	4	C5H8N2+
96.0807	22	C6H10N+
97.0759	4	C5H9N2+
98.0601	3	C5H8NO+
99.0916	115	C5H11N2+
100.0393	6	C4H6NO2+
100.0757	2	C5H10NO+
102.0465	12	C8H6+
102.0549	17	C4H8NO2+
103.0542	979	C8H7+
104.0576	35	C3H8N2O2+
104.0618	1	C8H8+
105.0447	31	C6H5N2+
105.0698	596	C8H9+
106.0526	2	C6H6N2+
106.065	5	C7H8N+
106.0732	22	C3H10N2O2+
106.0772	2	C8H10+
107.0855	999	C8H11+
108.068	17	C6H8N2+
108.0807	15	C7H10N+
109.0647	114	C7H9O+
110.06	66	C6H8NO+
110.0963	11	C7H12N+
111.0551	1	C5H7N2O+
111.0635	1	CH9N3O3+
111.0915	2	C6H11N2+
112.0391	7	C5H6NO2+
112.0757	5	C6H10NO+
112.1121	9	C7H14N+
113.0233	58	C5H5O3+
113.0709	5	C5H9N2O+
114.0548	1	C5H8NO2+
115.0542	125	C9H7+
116.062	12	C9H8+
117.0698	161	C9H9+
118.065	6	C8H8N+
118.0732	9	C4H10N2O2+
118.0772	2	C9H10+
119.0603	29	C7H7N2+
119.0855	62	C9H11+
120.0569	24	C8H8O+
120.0807	19	C8H10N+
120.0893	2	C4H12N2O2+
120.0932	18	C9H12+
121.0648	8	C8H9O+
121.0759	80	C7H9N2+
121.1011	11	C9H13+
122.0599	13	C7H8NO+
122.0727	1	C8H10O+
122.0796	2	C2H10N4O2+
122.0837	12	C7H10N2+
122.0964	17	C8H12N+
123.0803	4	C8H11O+
123.0916	24	C7H11N2+
124.0756	17	C7H10NO+
124.1119	15	C8H14N+
125.071	5	C6H9N2O+
125.1073	1	C7H13N2+
126.0547	1	C6H8NO2+
127.0865	657	C6H11N2O+
128.0342	3	C5H6NO3+
128.062	42	C10H8+
128.0704	19	C6H10NO2+
128.0898	17	CH12N4O3+
129.0697	44	C10H9+
130.0498	17	C5H8NO3+
130.065	18	C9H8N+
130.0731	2	C5H10N2O2+
130.0775	19	C10H10+
131.0855	77	C10H11+
132.0808	8	C9H10N+
132.0887	1	C5H12N2O2+
133.0647	2	C9H9O+
133.101	29	C10H13+
134.0963	7	C9H12N+
135.0803	182	C9H11O+
135.1167	143	C10H15+
136.0756	7	C8H10NO+
136.0838	7	C4H12N2O3+
136.1119	1	C9H14N+
136.1201	6	C5H16N2O2+
137.0707	2	C7H9N2O+
137.0958	2	C9H13O+
138.0548	42	C7H8NO2+
139.0865	14	C7H11N2O+
140.0705	5	C7H10NO2+
141.0698	13	C11H9+
141.1019	4	C7H13N2O+
142.0777	6	C11H10+
143.0729	1	C10H9N+
143.0855	18	C11H11+
144.0808	4	C10H10N+
144.0934	6	C11H12+
145.0647	6	C10H9O+
145.0888	4	C10H11N+
145.1011	32	C11H13+
146.0964	25	C10H12N+
146.1037	1	C4H12N5O+
146.1089	5	C11H14+
147.0803	2	C10H11O+
147.0913	1	C9H11N2+
147.1045	2	C10H13N+
148.0757	1	C9H10NO+
148.112	4	C10H14N+
149.0709	72	C8H9N2O+
150.0548	2	C8H8NO2+
150.0914	1	C9H12NO+
151.0865	8	C8H11N2O+
152.062	1	C12H8+
152.0707	1	C8H10NO2+
152.1069	2	C9H14NO+
153.0698	6	C12H9+
153.102	1	C8H13N2O+
153.1386	1	C9H17N2+
154.0775	1	C12H10+
155.0609	1	C10H7N2+
156.0653	13	C7H10NO3+
157.1012	2	C12H13+
157.1336	1	C8H17N2O+
158.0729	1	C11H10O+
158.0963	5	C11H12N+
159.0804	7	C11H11O+
159.1168	7	C12H15+
160.112	5	C11H14N+
160.1199	1	C5H14N5O+
161.096	6	C11H13O+
161.1325	1	C12H17+
162.0914	1	C10H12NO+
162.1276	7	C11H16N+
163.1116	27	C11H15O+
164.1147	1	C4H14N5O2+
165.0701	21	C13H9+
165.1026	1	C9H13N2O+
166.078	10	C13H10+
167.0812	183	C8H11N2O2+
168.0654	15	C8H10NO3+
168.0848	7	C3H12N4O4+
169.1011	2	C13H13+
172.0881	2	C12H12O+
172.1123	2	C12H14N+
173.0919	7	C7H13N2O3+
173.0965	5	C12H13O+
174.0915	1	C11H12NO+
174.1275	1	C12H16N+
175.0988	1	C11H13NO+
176.1066	2	C11H14NO+
178.0775	5	C14H10+
178.0855	1	C10H12NO2+
179.0855	19	C14H11+
180.0934	13	C14H12+
181.1013	10	C14H13+
181.1331	6	C10H17N2O+
184.112	2	C13H14N+
186.0909	1	C12H12NO+
188.107	4	C12H14NO+
188.1433	4	C13H18N+
190.1226	1	C12H16NO+
191.0855	1	C15H11+
192.0933	5	C15H12+
193.1012	9	C15H13+
194.1086	4	C15H14+
194.1649	4	C11H20N3+
195.0761	33	C9H11N2O3+
195.117	4	C15H15+
196.0604	6	C9H10NO4+
200.143	1	C14H18N+
202.0774	1	C16H10+
207.1167	5	C16H15+
211.0713	1	C9H11N2O4+
213.087	22	C9H13N2O4+
217.101	2	C17H13+
218.1538	1	C14H20NO+
222.16	1	C12H20N3O+
226.1583	1	C16H20N+
