Mass spectrum: Ofloxacin; LC-ESI-QTOF; MS2; CE: Ramp 22.8-34.3 eV; R=35000; [M+H]+
Name: Ofloxacin
Name: 9-Fluoro-3-methyl-10-(4-methyl-1-piperazinyl)-7-oxo-2,3-dihydro-7H-[1,4]oxazino[2,3,4-ij]quinoline-6-carboxylic acid
Formula: C18H20FN3O4
Exact mass: 361.1438
SMILES: CC1COc2c3n1cc(c(=O)c3cc(c2N4CCN(CC4)C)F)C(=O)O
InChI: InChI=1S/C18H20FN3O4/c1-10-9-26-17-14-11(16(23)12(18(24)25)8-22(10)14)7-13(19)15(17)21-5-3-20(2)4-6-21/h7-8,10H,3-6,9H2,1-2H3,(H,24,25)
Instrument: Bruker maXis Impact
Instrument type: LC-ESI-QTOF
Ms type: MS2
Ion mode: POSITIVE
Ionization: ESI
Fragmentation mode: CID
Collision energy: Ramp 22.8-34.3 eV
Resolution: 35000
Column name: Acclaim RSLC C18 2.2um, 2.1x100mm, Thermo
Retention time: 4.5 min
Base peak: 363.1494
Precursor m/z: 362.1511
Precursor type: [M+H]+
m/z	relative intensity	assigned
56.0488	11	C3H6N+
57.0564	7	C3H7N+
58.0649	44	C3H8N+
70.0647	156	C4H8N+
71.0702	6	C4H9N+
72.0803	980	C4H10N+
84.0808	12	C5H10N+
85.0762	5	C4H9N2+
85.0879	6	C5H11N+
164.0516	7	C9H7FNO+
178.0298	7	C9H5FNO2+
179.0381	5	C9H6FNO2+
192.0449	20	C13H6NO+
194.0243	5	C9H5FNO3+
199.0522	5	C8H8FN2O3+
203.0612	5	C11H8FN2O+
204.0452	11	C11H7FNO2+
205.0414	43	C10H6FN2O2+
205.0783	15	C11H10FN2O+
206.0602	8	C14H8NO+
213.0659	6	C12H9N2O2+
219.0571	29	C11H8FN2O2+
220.062	11	C14H8N2O+
221.0719	41	C11H10FN2O2+
222.0754	5	C11H12NO4+
231.0581	5	C12H8FN2O2+
233.0722	60	C12H10FN2O2+
234.0762	10	C12H12NO4+
241.0952	12	C14H13N2O2+
245.0713	6	C16H9N2O+
245.1079	6	C17H13N2+
247.0876	29	C13H12FN2O2+
249.0317	11	C17H3N3+
261.105	905	C14H14FN2O2+
262.1072	148	C14H16NO4+
263.1091	13	C15H16FO3+
270.1225	10	C15H16N3O2+
273.1042	13	C15H14FN2O2+
274.1033	5	C16H15FO3+
275.1197	6	C15H16FN2O2+
276.1164	34	C16H17FO3+
277.063	75	C13H10FN2O4+
278.0663	12	C16H10N2O3+
287.0728	7	C16H12FO4+
298.154	8	C17H20N3O2+
301.1204	8	C16H16FN3O2+
302.0938	8	C15H13FN3O3+
314.1182	5	C18H17FNO3+
316.1075	9	C16H15FN3O3+
316.1461	60	C17H19FN3O2+
317.1479	11	C17H21N2O4+
318.1633	999	C17H21FN3O2+
319.1656	230	C15H21N5O3+
320.1054	194	C15H15FN3O4+
320.1677	14	C16H21FN4O2+
321.1085	33	C18H15N3O3+
344.1429	23	C18H19FN3O3+
345.139	28	C18H20FN3O3+
360.1736	29	C18H21FN4O3+
362.1535	600	C18H21FN3O4+
364.1516	66	C17H21FN4O4+
365.1542	6	C16H20FN5O4+
