Mass spectrum: Diphenhydramine; LC-ESI-QFT; MS2; CE: 35 NCE; R=35000; [M-H]-
Name: Diphenhydramine
Name: 2-benzhydryloxy-N,N-dimethylethanamine
Formula: C17H21NO
Exact mass: 255.16231
SMILES: CN(C)CCOC(c1ccccc1)c1ccccc1
InChI: InChI=1S/C17H21NO/c1-18(2)13-14-19-17(15-9-5-3-6-10-15)16-11-7-4-8-12-16/h3-12,17H,13-14H2,1-2H3
Instrument: Q Exactive Plus Orbitrap Thermo Scientific
Instrument type: LC-ESI-QFT
Ms type: MS2
Ion mode: NEGATIVE
Ionization: ESI
Fragmentation mode: HCD
Collision energy: 35  (nominal)
Resolution: 35000
Column name: Kinetex C18 EVO 2.6 um, 2.1x50 mm, precolumn 2.1x5 mm, Phenomenex
Retention time: 7.722 min
Base peak: 294.0554
Precursor m/z: 294.0554
Precursor type: [M-H]-
m/z	relative intensity	assigned
134.061	547	C8H8NO-
150.0561	49	C8H8NO2-
178.0509	12	C9H8NO3-
198.0231	999	C8H8NO3S-
294.0555	356	C12H12N3O4S-
