Mass spectrum: Fluometuron; LC-ESI-QFT; MS2; CE: 90; R=35000; [M-H]-
Name: Fluometuron
Name: 1,1-dimethyl-3-[3-(trifluoromethyl)phenyl]urea
Formula: C10H11F3N2O
Exact mass: 232.08235
SMILES: CN(C)C(=O)NC1=CC=CC(=C1)C(F)(F)F
InChI: InChI=1S/C10H11F3N2O/c1-15(2)9(16)14-8-5-3-4-7(6-8)10(11,12)13/h3-6H,1-2H3,(H,14,16)
Instrument: Q Exactive Plus Orbitrap Thermo Scientific
Instrument type: LC-ESI-QFT
Ms type: MS2
Ion mode: NEGATIVE
Ionization: ESI
Fragmentation mode: HCD
Collision energy: 90 (nominal)
Resolution: 35000
Column name: XBridge C18 3.5um, 2.1x50mm, Waters
Retention time: 8.0 min
Base peak: 231.0748
Precursor m/z: 231.0751
Precursor type: [M-H]-
m/z	relative intensity	assigned
50.0036	5	C3N-
65.9986	3	C3NO-
68.9957	10	CF3-
74.0038	11	C5N-
92.9958	12	C3F3-
98.0036	999	C7N-
100.0193	21	C7H2N-
118.01	329	C7HFN-
118.9939	17	C7FO-
120.0256	37	C7H3FN-
125.9986	4	C8NO-
136.0205	5	C7H3FNO-
138.0162	105	C7H2F2N-
140.0318	11	C7H4F2N-
142.0474	5	C7H6F2N-
143.0114	24	C7H2F3-
146.0049	765	C8HFNO-
156.027	2	C7H4F2NO-
158.0224	17	C7H3F3N-
160.038	261	C7H5F3N-
166.011	261	C8H2F2NO-
182.0061	3	C8H2F2NO2-
184.0216	13	C8H4F2NO2-
186.0173	385	C8H3F3NO-
188.032	2	C8H5F3NO-
200.0204	18	C8H3F3N2O-
215.0441	12	C9H6F3N2O-
