Mass spectrum: Microcystin-LY; LC-ESI-QFT; MS2; CE: 75; R=35000; [M+H]+
Name: Microcystin-LY
Name: 15-[(4-hydroxyphenyl)methyl]-18-[(1Z,3E)-6-methoxy-3,5-dimethyl-7-phenylhepta-1,3-dienyl]-1,5,12,19-tetramethyl-2-methylidene-8-(2-methylpropyl)-3,6,9,13,16,20,25-heptaoxo-1,4,7,10,14,17,21-heptazacyclopentacosane-11,22-dicarboxylic acid
Formula: C52H71N7O13
Exact mass: 1001.51099
SMILES: O=C(O)C2NC(=O)C(NC(=O)C(NC(=O)\C(=C)N(C(=O)CCC(C(=O)O)NC(=O)C(C)C(/C=C\C(=C\C(C)C(OC)Cc1ccccc1)C)NC(=O)C(NC(=O)C2C)Cc3ccc(O)cc3)C)C)CC(C)C
InChI: InChI=1S/C52H71N7O13/c1-28(2)24-40-50(67)58-44(52(70)71)32(6)46(63)56-41(26-36-17-19-37(60)20-18-36)49(66)54-38(21-16-29(3)25-30(4)42(72-10)27-35-14-12-11-13-15-35)31(5)45(62)55-39(51(68)69)22-23-43(61)59(9)34(8)48(65)53-33(7)47(64)57-40/h11-21,25,28,30-33,38-42,44,60H,8,22-24,26-27H2,1-7,9-10H3,(H,53,65)(H,54,66)(H,55,62)(H,56,63)(H,57,64)(H,58,67)(H,68,69)(H,70,71)/b21-16-,29-25+
Instrument: Q Exactive Orbitrap Thermo Scientific
Instrument type: LC-ESI-QFT
Ms type: MS2
Ion mode: POSITIVE
Ionization: ESI
Fragmentation mode: HCD
Collision energy: 75 (nominal)
Resolution: 35000
Column name: XBridge C18 3.5um, 2.1x50mm, Waters
Retention time: 12.4 min
Base peak: 1002.5178
Precursor m/z: 1002.5183
Precursor type: [M+H]+
m/z	relative intensity	assigned
70.065	2	C4H8N+
74.0236	21	C2H4NO2+
74.0964	2	C4H12N+
77.0385	34	C6H5+
78.0463	5	C6H6+
79.0542	261	C6H7+
80.0495	51	C5H6N+
81.0336	5	C5H5O+
81.0573	7	C5H7N+
81.0699	17	C6H9+
82.0288	20	C4H4NO+
82.0651	162	C5H8N+
83.0491	1	C5H7O+
83.0605	1	C4H7N2+
84.0444	185	C4H6NO+
84.0808	11	C5H10N+
85.0284	22	C4H5O2+
85.0649	1	C5H9O+
86.06	18	C4H8NO+
86.0964	229	C5H12N+
91.0542	999	C7H7+
92.0619	13	C7H8+
93.0698	243	C7H9+
94.0651	55	C6H8N+
95.0491	246	C6H7O+
95.0855	23	C7H11+
96.0445	10	C5H6NO+
96.0682	2	C5H8N2+
96.0807	19	C6H10N+
97.0761	5	C5H9N2+
98.0601	5	C5H8NO+
99.0917	127	C5H11N2+
100.0395	1	C4H6NO2+
102.0464	12	C8H6+
102.055	15	C4H8NO2+
103.0542	946	C8H7+
104.0579	3	C3H8N2O2+
104.0619	1	C8H8+
105.0447	35	C6H5N2+
105.0699	600	C8H9+
106.0525	4	C6H6N2+
106.0651	6	C7H8N+
106.0775	5	C8H10+
107.0855	939	C8H11+
108.0681	14	C6H8N2+
108.0807	15	C7H10N+
108.0888	2	C3H12N2O2+
109.0648	109	C7H9O+
110.06	60	C6H8NO+
110.0964	9	C7H12N+
111.0552	1	C5H7N2O+
111.0917	1	C6H11N2+
112.0393	6	C5H6NO2+
112.0756	5	C6H10NO+
112.1122	1	C7H14N+
113.0233	57	C5H5O3+
113.0709	13	C5H9N2O+
115.0542	123	C9H7+
116.062	13	C9H8+
117.0698	139	C9H9+
118.0651	20	C8H8N+
119.0491	182	C8H7O+
119.0603	24	C7H7N2+
119.0855	60	C9H11+
120.0528	2	C3H8N2O3+
120.0569	17	C8H8O+
120.0807	25	C8H10N+
120.0932	19	C9H12+
121.0647	21	C8H9O+
121.076	84	C7H9N2+
121.101	10	C9H13+
122.0599	20	C7H8NO+
122.0838	10	C7H10N2+
122.0964	15	C8H12N+
123.0917	26	C7H11N2+
124.0756	16	C7H10NO+
124.1119	12	C8H14N+
125.0711	9	C6H9N2O+
126.0551	1	C6H8NO2+
127.0866	652	C6H11N2O+
128.0341	5	C5H6NO3+
128.062	59	C10H8+
128.0706	6	C6H10NO2+
129.0698	42	C10H9+
130.0499	16	C5H8NO3+
130.0652	19	C9H8N+
130.0777	20	C10H10+
131.0729	5	C9H9N+
131.0855	84	C10H11+
132.0808	9	C9H10N+
133.052	1	C8H7NO+
133.0647	2	C9H9O+
133.0884	1	C9H11N+
133.1011	26	C10H13+
134.06	6	C8H8NO+
134.0964	8	C9H12N+
135.0684	9	C8H9NO+
135.0803	174	C9H11O+
135.1167	127	C10H15+
136.0756	410	C8H10NO+
137.071	2	C7H9N2O+
137.0961	2	C9H13O+
138.0548	41	C7H8NO2+
139.0865	14	C7H11N2O+
140.0705	5	C7H10NO2+
141.0651	1	C4H7N5O+
141.0698	14	C11H9+
142.0777	7	C11H10+
143.0731	5	C10H9N+
143.0856	19	C11H11+
144.0445	1	C9H6NO+
144.0809	3	C10H10N+
144.0936	5	C11H12+
145.0647	17	C10H9O+
145.1012	28	C11H13+
146.0601	44	C9H8NO+
146.0965	26	C10H12N+
146.109	8	C11H14+
147.0439	2	C9H7O2+
147.0679	1	C9H9NO+
147.0804	5	C10H11O+
147.0919	1	C9H11N2+
147.1043	2	C10H13N+
148.0759	4	C9H10NO+
148.1122	4	C10H14N+
149.0709	80	C8H9N2O+
150.0548	4	C8H8NO2+
150.1279	1	C10H16N+
151.0865	12	C8H11N2O+
152.0622	4	C12H8+
152.0707	1	C8H10NO2+
152.107	2	C9H14NO+
153.07	7	C12H9+
154.0777	6	C12H10+
155.0604	2	C10H7N2+
155.0807	18	C5H9N5O+
156.081	1	C11H10N+
156.0935	1	C12H12+
157.0645	1	C11H9O+
158.0726	2	C11H10O+
158.0964	8	C11H12N+
159.0678	5	C10H9NO+
159.08	11	C11H11O+
159.1169	7	C12H15+
160.0757	1	C10H10NO+
160.1122	5	C11H14N+
161.096	2	C11H13O+
162.0547	16	C9H8NO2+
162.0911	15	C10H12NO+
162.1273	9	C11H16N+
163.0863	4	C9H11N2O+
163.1117	26	C11H15O+
164.0705	1	C9H10NO2+
164.1065	1	C10H14NO+
165.0698	27	C13H9+
166.0777	11	C13H10+
167.0812	169	C8H11N2O2+
168.0655	9	C8H10NO3+
169.1013	1	C13H13+
171.0807	1	C12H11O+
172.1116	2	C12H14N+
173.0962	9	C12H13O+
174.0912	11	C11H12NO+
174.1276	1	C12H16N+
176.1068	10	C11H14NO+
178.0775	4	H12N5O6+
179.0854	22	C14H11+
180.0933	10	C14H12+
181.1009	10	C14H13+
181.1336	6	C10H17N2O+
184.1117	4	C13H14N+
186.1277	1	C13H16N+
188.1072	2	C12H14NO+
188.1436	2	C13H18N+
192.0654	1	C10H10NO3+
192.0933	2	C15H12+
193.1015	8	C15H13+
194.1089	2	C15H14+
194.165	5	C11H20N3+
195.0761	35	C9H11N2O3+
195.1162	4	C15H15+
196.0602	6	C9H10NO4+
196.1117	2	C14H14N+
202.0861	6	C12H12NO2+
204.1377	1	C13H18NO+
207.1168	2	C16H15+
213.0867	21	C9H13N2O4+
217.1012	1	C17H13+
226.1593	5	C2H22N6O6+
