Mass spectrum: Microcystin-YR; LC-ESI-QFT; MS2; CE: 75; R=35000; [M-H]-
Name: Microcystin-YR
Name: (5R,8S,11R,12R,15S,18S,19S,22R)-15-[3-(diaminomethylideneamino)propyl]-8-[(4-hydroxyphenyl)methyl]-18-[(1E,3E,5S,6S)-6-methoxy-3,5-dimethyl-7-phenylhepta-1,3-dienyl]-1,5,12,19-tetramethyl-2-methylidene-3,6,9,13,16,20,25-heptaoxo-1,4,7,10,14,17,21-heptazacyclopentacosane-11,22-dicarboxylic acid
Formula: C52H72N10O13
Exact mass: 1044.52803
SMILES: O=C2N[C@@H](\C=C\C(=C\[C@H](C)[C@@H](OC)Cc1ccccc1)C)[C@@H](C(=O)N[C@@H](C(=O)O)CCC(=O)N(/C(=C)C(=O)N[C@@H](C(=O)N[C@H](C(=O)N[C@@H](C(=O)O)[C@H](C(=O)N[C@H]2CCC/N=C(\N)N)C)Cc3ccc(O)cc3)C)C)C
InChI: InChI=1S/C52H72N10O13/c1-28(25-29(2)41(75-8)27-34-13-10-9-11-14-34)16-21-37-30(3)44(65)59-39(50(71)72)22-23-42(64)62(7)33(6)47(68)56-32(5)46(67)60-40(26-35-17-19-36(63)20-18-35)49(70)61-43(51(73)74)31(4)45(66)58-38(48(69)57-37)15-12-24-55-52(53)54/h9-11,13-14,16-21,25,29-32,37-41,43,63H,6,12,15,22-24,26-27H2,1-5,7-8H3,(H,56,68)(H,57,69)(H,58,66)(H,59,65)(H,60,67)(H,61,70)(H,71,72)(H,73,74)(H4,53,54,55)/b21-16+,28-25+/t29-,30-,31+,32+,37-,38-,39+,40-,41-,43+/m0/s1
Instrument: Q Exactive Orbitrap Thermo Scientific
Instrument type: LC-ESI-QFT
Ms type: MS2
Ion mode: NEGATIVE
Ionization: ESI
Fragmentation mode: HCD
Collision energy: 75 (nominal)
Resolution: 35000
Column name: XBridge C18 3.5um, 2.1x50mm, Waters
Retention time: 10.0 min
Base peak: 1043.5209
Precursor m/z: 1043.5208
Precursor type: [M-H]-
m/z	relative intensity	assigned
72.0091	9	C2H2NO2-
72.0455	114	C3H6NO-
73.0296	30	C3H5O2-
73.0407	410	C2H5N2O-
74.0247	112	C2H4NO2-
80.0506	47	C5H6N-
81.022	6	C4H3NO-
81.0459	19	C4H5N2-
82.0174	21	C3H2N2O-
82.0299	162	C4H4NO-
83.0251	177	C3H3N2O-
83.0615	25	C4H7N2-
84.0455	180	C4H6NO-
85.0296	4	C4H5O2-
85.0408	59	C3H5N2O-
85.066	5	C5H9O-
86.0247	8	C3H4NO2-
87.0564	199	C3H7N2O-
88.0405	16	C3H6NO2-
91.0553	7	C7H7-
93.0346	158	C6H5O-
94.0299	26	C5H4NO-
95.0251	48	C4H3N2O-
95.0376	16	C5H5NO-
95.0503	3	C6H7O-
95.0614	3	C5H7N2-
96.033	23	C4H4N2O-
96.0455	41	C5H6NO-
97.0408	91	C4H5N2O-
98.0122	32	C3H2N2O2-
98.0249	34	C4H4NO2-
98.0612	24	C5H8NO-
99.02	149	C3H3N2O2-
99.0564	313	C4H7N2O-
100.0404	8	C4H6NO2-
101.0357	7	C3H5N2O2-
101.0721	31	C4H9N2O-
102.0561	19	C4H8NO2-
106.0664	7	C7H8N-
107.0377	4	C6H5NO-
107.0503	62	C7H7O-
107.0615	13	C6H7N2-
108.0212	18	C6H4O2-
108.033	47	C5H4N2O-
108.0455	37	C6H6NO-
108.082	5	C7H10N-
109.0408	819	C5H5N2O-
110.0248	575	C5H4NO2-
110.0485	32	C5H6N2O-
111.02	93	C4H3N2O2-
111.0326	5	C5H5NO2-
111.0564	40	C5H7N2O-
112.0404	145	C5H6NO2-
112.0768	8	C6H10NO-
113.0357	255	C4H5N2O2-
113.0721	64	C5H9N2O-
117.0346	43	C8H5O-
118.0661	4	C8H8N-
119.0502	999	C8H7O-
120.0329	4	C6H4N2O-
120.0455	64	C7H6NO-
121.0296	4	C7H5O2-
121.0407	7	C6H5N2O-
121.0533	4	C7H7NO-
122.0248	15	C6H4NO2-
122.0487	21	C6H6N2O-
122.0611	17	C7H8NO-
122.0974	27	C8H12N-
123.0201	17	C5H3N2O2-
123.0327	47	C6H5NO2-
123.0442	25	C5H5N3O-
123.0564	76	C6H7N2O-
124.0279	16	C5H4N2O2-
124.0404	188	C6H6NO2-
124.0516	165	C5H6N3O-
124.0765	15	C7H10NO-
125.0357	51	C5H5N2O2-
125.0595	22	C5H7N3O-
125.0721	51	C6H9N2O-
126.0673	365	C5H8N3O-
127.0513	187	C5H7N2O2-
128.0354	545	C5H6NO3-
130.0987	35	C5H12N3O-
131.0377	25	C8H5NO-
131.0866	6	C10H11-
132.0456	19	C8H6NO-
133.0409	5	C7H5N2O-
133.0534	85	C8H7NO-
134.0612	91	C8H8NO-
135.0327	18	C7H5NO2-
135.0452	4	C8H7O2-
135.0564	36	C7H7N2O-
136.0404	23	C7H6NO2-
136.0513	4	C6H6N3O-
136.0639	4	C7H8N2O-
136.077	25	C8H10NO-
137.0481	18	C7H7NO2-
137.0595	8	C6H7N3O-
137.0721	19	C7H9N2O-
138.0434	83	C6H6N2O2-
138.0561	21	C7H8NO2-
138.0675	15	C6H8N3O-
139.0512	19	C6H7N2O2-
139.0877	8	C7H11N2O-
140.0829	37	C6H10N3O-
141.0667	16	C6H9N2O2-
142.0621	76	C5H8N3O2-
144.0454	116	C9H6NO-
144.0777	240	C5H10N3O2-
146.0609	4	C9H8NO-
147.0327	4	C8H5NO2-
147.0451	5	C9H7O2-
147.0565	5	C8H7N2O-
148.0281	4	C7H4N2O2-
148.064	5	C8H8N2O-
149.0481	5	C8H7NO2-
149.0719	25	C8H9N2O-
150.0559	102	C8H8NO2-
151.0272	7	C7H5NO3-
151.0509	3	C7H7N2O2-
151.0876	6	C8H11N2O-
152.0465	29	C6H6N3O2-
152.0826	30	C7H10N3O-
153.0668	85	C7H9N2O2-
153.1032	17	C8H13N2O-
154.0985	13	C7H12N3O-
156.0777	24	C6H10N3O2-
157.0532	18	C10H7NO-
160.0403	27	C9H6NO2-
162.056	213	C9H8NO2-
163.0876	15	C9H11N2O-
164.0718	4	C9H10NO2-
165.0669	3	C8H9N2O2-
166.0986	7	C8H12N3O-
167.0824	30	C8H11N2O2-
168.0415	13	C6H6N3O3-
168.1141	36	C8H14N3O-
169.0492	20	C6H7N3O3-
170.0568	26	C6H8N3O3-
170.0935	16	C7H12N3O2-
172.0765	14	C11H10NO-
178.087	4	C10H12NO2-
178.0989	3	C9H12N3O-
179.0827	3	C9H11N2O2-
180.0781	5	C8H10N3O2-
180.1143	23	C9H14N3O-
181.0981	47	C9H13N2O2-
186.1246	3	C8H16N3O2-
193.0734	7	C8H9N4O2-
202.0878	3	C12H12NO2-
205.0978	7	C11H13N2O2-
206.0934	7	C10H12N3O2-
209.1046	23	C9H13N4O2-
