Mass spectrum: Man4GlcNAc-III; LC-ESI-QQ; MS2; CE:35V; Amide
Name: Man4GlcNAc-III
Name: Man-alpha-1-3Man-alpha-1-6(Man-alpha-1-3)Man-beta-1-6GlcNAc
Class: Natural Product; Oligosaccharide; N-linked glycan; High-mannose type
Formula: C32H55NO26
Exact mass: 869.30123
SMILES: O(C(OC(C5O)C(OC(C5NC(C)=O)O)CO)4)C(C(O)C(C(O)4)OC(O3)C(C(C(C3CO)O)O)O)COC(C(O)1)OC(CO)C(C1OC(O2)C(C(C(C(CO)2)O)O)O)O
InChI: InChI=1/C32H55NO26/c1-7(38)33-13-18(43)25(11(5-37)52-28(13)50)57-32-24(49)27(59-31-22(47)20(45)15(40)9(3-35)55-31)17(42)12(56-32)6-51-29-23(48)26(16(41)10(4-36)53-29)58-30-21(46)19(44)14(39)8(2-34)54-30/h8-32,34-37,39-50H,2-6H2,1H3,(H,33,38)/t8-,9-,10-,11-,12-,13-,14-,15-,16-,17-,18-,19+,20+,21+,22+,23+,24+,25-,26+,27+,28-,29+,30-,31-,32+/m1/s1/f/h33H
Instrument: 2695 HPLC Quadro Micro API, Waters
Instrument type: LC-ESI-QQ
Ms type: MS2
Ion mode: POSITIVE
Collision energy: 35.0 V
Ionization: ESI
Column name: TSK-GEL Amide-80 2.0 mm X 250 mm (TOSOH)
Retention time: 15.314 min
Derivative form: C41H66N2O27
Derivative mass: 1018.38529
Derivative type: ABEE (p-Aminobenzoic acid ethyl ester)
Precursor m/z: 1019.30
Precursor type: [M+H]+
m/z	relative intensity
324.8	125
325.6	32
326.3	25
370.4	307
371.1	999
372.1	289
487.0	35
488.0	35
532.6	192
533.5	243
534.2	84
694.3	48
695.3	74
696.2	52
858.0	23
