Mass spectrum: Man6GlcNAc-III; LC-ESI-QQ; MS2; CE:40V; Amide
Name: Man6GlcNAc-III
Name: Man-alpha-1-6(Man-alpha-1-2Man-alpha-1-3)Man-alpha-1-6(Man-alpha-1-3)Man-beta-1-4GlcNAc
Class: Natural Product; Oligosaccharide; N-linked glycan; High-mannose type
Formula: C44H75NO36
Exact mass: 1193.40688
SMILES: C(O)(C(O)1)C(OC(C3O)C(C(OC(COC(O6)C(C(C(C(COC(O7)C(O)C(C(O)C(CO)7)O)6)O)OC(O4)C(OC(C5O)OC(C(O)C5O)CO)C(O)C(O)C(CO)4)O)3)OC(C2O)C(CO)OC(C(NC(C)=O)2)O)O)OC(CO)C1O
InChI: InChI=1/C44H75NO36/c1-9(51)45-17-24(58)34(14(6-50)71-38(17)68)78-43-33(67)36(79-41-30(64)26(60)19(53)11(3-47)73-41)23(57)16(77-43)8-70-40-32(66)35(22(56)15(76-40)7-69-39-29(63)25(59)18(52)10(2-46)72-39)80-44-37(28(62)21(55)13(5-49)75-44)81-42-31(65)27(61)20(54)12(4-48)74-42/h10-44,46-50,52-68H,2-8H2,1H3,(H,45,51)/t10-,11-,12-,13-,14-,15-,16-,17-,18-,19-,20-,21-,22-,23-,24-,25+,26+,27+,28+,29+,30+,31+,32+,33+,34-,35+,36+,37+,38-,39+,40+,41-,42-,43+,44-/m1/s1/f/h45H
Instrument: 2695 HPLC Quadro Micro API, Waters
Instrument type: LC-ESI-QQ
Ms type: MS2
Ion mode: POSITIVE
Collision energy: 40.0 V
Ionization: ESI
Column name: TSK-GEL Amide-80 2.0 mm X 250 mm (TOSOH)
Retention time: 25.906 min
Derivative form: C53H86N2O37
Derivative mass: 1342.49094
Derivative type: ABEE (p-Aminobenzoic acid ethyl ester)
Precursor m/z: 1343.30
Precursor type: [M+H]+
m/z	relative intensity
325.1	72
370.3	133
371.0	999
372.0	553
487.3	35
532.2	117
533.1	531
534.1	153
648.6	30
694.0	97
694.7	227
695.6	284
696.4	111
856.2	44
857.4	86
858.5	36
1019.4	44
1020.3	51
1182.4	31
1342.3	32
1344.1	48
