Mass spectrum: Theophylline; LC-ESI-QTOF; MS2; CE: Ramp 17.3-26.0 eV; R=35000; [M+H]+
Name: Theophylline
Name: 1,3-dimethyl-7H-purine-2,6-dione
Formula: C7H8N4O2
Exact mass: 180.0647
SMILES: Cn1c2c(c(=O)n(c1=O)C)nc[nH]2
InChI: InChI=1S/C7H8N4O2/c1-10-5-4(8-3-9-5)6(12)11(2)7(10)13/h3H,1-2H3,(H,8,9)
Instrument: Bruker maXis Impact
Instrument type: LC-ESI-QTOF
Ms type: MS2
Ion mode: POSITIVE
Ionization: ESI
Fragmentation mode: CID
Collision energy: Ramp 17.3-26.0 eV
Resolution: 35000
Column name: Acclaim RSLC C18 2.2um, 2.1x100mm, Thermo
Retention time: 4.1 min
Base peak: 261.1359
Precursor m/z: 181.072
Precursor type: [M+H]+
m/z	relative intensity	assigned
69.0448	12	C3H5N2+
124.0501	715	C5H6N3O+
125.0543	38	C5H7N3O+
137.0815	31	C6H9N4+
142.0611	85	C5H8N3O2+
181.0723	999	C7H9N4O2+
