Mass spectrum: Microcystin-LA; LC-ESI-QFT; MS2; CE: 45; R=35000; [M-H]-
Name: Microcystin-LA
Name: (5R,8S,11R,12S,15S,18S,19S,22R)-18-[(1E,3E,5S,6S)-6-methoxy-3,5-dimethyl-7-phenylhepta-1,3-dienyl]-1,5,12,15,19-pentamethyl-2-methylidene-8-(2-methylpropyl)-3,6,9,13,16,20,25-heptaoxo-1,4,7,10,14,17,21-heptazacyclopentacosane-11,22-dicarboxylic acid
Formula: C46H67N7O12
Exact mass: 909.48477
SMILES: O=C2N[C@@H](\C=C\C(=C\[C@H](C)[C@@H](OC)Cc1ccccc1)C)[C@@H](C(=O)N[C@@H](C(=O)O)CCC(=O)N(/C(=C)C(=O)N[C@@H](C(=O)N[C@H](C(=O)N[C@@H](C(=O)O)[C@@H](C(=O)N[C@H]2C)C)CC(C)C)C)C)C
InChI: InChI=1S/C46H67N7O12/c1-24(2)21-35-44(60)52-38(46(63)64)28(6)40(56)47-29(7)41(57)49-33(18-17-25(3)22-26(4)36(65-11)23-32-15-13-12-14-16-32)27(5)39(55)50-34(45(61)62)19-20-37(54)53(10)31(9)43(59)48-30(8)42(58)51-35/h12-18,22,24,26-30,33-36,38H,9,19-21,23H2,1-8,10-11H3,(H,47,56)(H,48,59)(H,49,57)(H,50,55)(H,51,58)(H,52,60)(H,61,62)(H,63,64)/b18-17+,25-22+/t26-,27-,28-,29-,30+,33-,34+,35-,36-,38+/m0/s1
Instrument: Q Exactive Orbitrap Thermo Scientific
Instrument type: LC-ESI-QFT
Ms type: MS2
Ion mode: NEGATIVE
Ionization: ESI
Fragmentation mode: HCD
Collision energy: 45 (nominal)
Resolution: 35000
Column name: XBridge C18 3.5um, 2.1x50mm, Waters
Retention time: 12.1 min
Base peak: 908.4785
Precursor m/z: 908.4775
Precursor type: [M-H]-
m/z	relative intensity	assigned
65.9987	1	C3NO-
66.0349	5	C4H4N-
68.0506	1	C4H6N-
70.0299	4	C3H4NO-
71.0138	1	C3H3O2-
71.0504	1	C4H7O-
72.0091	3	C2H2NO2-
72.0455	39	C3H6NO-
73.0295	25	C3H5O2-
74.0248	60	C2H4NO2-
80.0506	6	C5H6N-
81.0459	1	C4H5N2-
82.0298	33	C4H4NO-
82.0662	19	C5H8N-
83.0252	1	C3H3N2O-
83.0504	1	C5H7O-
84.0455	74	C4H6NO-
85.0294	1	C4H5O2-
85.0408	5	C3H5N2O-
86.0248	3	C3H4NO2-
86.0612	4	C4H8NO-
87.0564	62	C3H7N2O-
88.0404	11	C3H6NO2-
91.0554	6	C7H7-
94.0298	5	C5H4NO-
94.0663	5	C6H8N-
95.0248	1	C4H3N2O-
96.0329	2	C4H4N2O-
96.0455	11	C5H6NO-
96.0819	5	C6H10N-
97.0408	33	C4H5N2O-
98.0119	1	C3H2N2O2-
98.0247	11	C4H4NO2-
98.0611	23	C5H8NO-
99.0564	139	C4H7N2O-
100.004	10	C3H2NO3-
100.0404	31	C4H6NO2-
100.0767	1	C5H10NO-
101.0721	6	C4H9N2O-
102.056	9	C4H8NO2-
106.0661	1	C7H8N-
107.0612	1	C6H7N2-
108.0328	4	C5H4N2O-
108.0455	5	C6H6NO-
109.0169	4	C5H3NO2-
109.0407	10	C5H5N2O-
109.0771	12	C6H9N2-
110.0248	128	C5H4NO2-
110.0611	15	C6H8NO-
111.02	10	C4H3N2O2-
111.0564	80	C5H7N2O-
112.0404	58	C5H6NO2-
112.0768	20	C6H10NO-
113.0357	58	C4H5N2O2-
114.0926	1	C6H12NO-
119.0502	3	C8H7O-
120.0455	1	C7H6NO-
120.0818	1	C8H10N-
121.0295	7	C7H5O2-
121.0533	4	C7H7NO-
121.0772	1	C7H9N2-
122.0248	1	C6H4NO2-
122.0484	1	C6H6N2O-
122.0611	11	C7H8NO-
122.0975	9	C8H12N-
123.0326	15	C6H5NO2-
123.0564	51	C6H7N2O-
124.0403	122	C6H6NO2-
125.0356	12	C5H5N2O2-
125.0436	2	CH7N3O4-
125.072	39	C6H9N2O-
126.0561	9	C6H8NO2-
127.0513	46	C5H7N2O2-
127.0877	13	C6H11N2O-
128.0353	999	C5H6NO3-
129.0386	17	H7N3O5-
129.1034	182	C6H13N2O-
130.0509	16	C5H8NO3-
130.0873	27	C6H12NO2-
130.1066	3	CH14N4O3-
131.0865	46	C10H11-
134.0608	1	C8H8NO-
135.0565	11	C7H7N2O-
136.0403	6	C7H6NO2-
136.0641	3	C7H8N2O-
136.0767	6	C8H10NO-
136.1131	8	C9H14N-
137.072	80	C7H9N2O-
138.0437	13	C6H6N2O2-
138.056	82	C7H8NO2-
139.0513	12	C6H7N2O2-
139.0876	120	C7H11N2O-
140.0717	13	C7H10NO2-
140.1082	4	C8H14NO-
141.067	10	C6H9N2O2-
141.1035	5	C7H13N2O-
142.051	7	C6H8NO3-
143.0826	3	C6H11N2O2-
145.062	4	C5H9N2O3-
148.0768	4	C9H10NO-
149.072	7	C8H9N2O-
150.0559	27	C8H8NO2-
150.0924	1	C9H12NO-
151.051	1	C7H7N2O2-
151.0876	10	C8H11N2O-
152.0719	8	C8H10NO2-
152.0828	9	C7H10N3O-
153.0668	120	C7H9N2O2-
153.1032	16	C8H13N2O-
154.0695	1	H8N7O3-
154.0984	4	C7H12N3O-
155.0825	82	C7H11N2O2-
155.1189	15	C8H15N2O-
157.0978	3	C7H13N2O2-
157.1346	4	C8H17N2O-
161.0718	1	C9H9N2O-
163.0512	25	C8H7N2O2-
163.0873	6	C9H11N2O-
164.0351	6	C8H6NO3-
164.0595	1	C8H8N2O2-
164.0718	1	C9H10NO2-
164.0831	1	C8H10N3O-
165.0669	15	C8H9N2O2-
165.1031	139	C9H13N2O-
166.0871	5	C9H12NO2-
166.0984	6	C8H12N3O-
167.0825	26	C8H11N2O2-
167.1187	4	C9H15N2O-
169.0983	1	C8H13N2O2-
169.1346	2	C9H17N2O-
170.0934	26	C7H12N3O2-
171.0775	3	C7H11N2O3-
171.113	3	C6H13N5O-
171.1195	2	H13N9O2-
172.1092	1	C7H14N3O2-
175.051	1	C9H7N2O2-
177.0672	1	C9H9N2O2-
177.1027	1	C10H13N2O-
178.0627	1	C8H8N3O2-
179.1188	1	C10H15N2O-
180.0777	5	C8H10N3O2-
180.1028	5	C10H14NO2-
180.1142	46	C9H14N3O-
181.0619	23	C8H9N2O3-
181.0978	6	C9H13N2O2-
182.1296	78	C9H16N3O-
183.0775	1	C8H11N2O3-
183.1137	14	C9H15N2O2-
194.1301	3	C10H16N3O-
195.0778	1	C9H11N2O3-
195.1138	3	C10H15N2O2-
198.1246	14	C9H16N3O2-
200.1404	39	C9H18N3O2-
208.1094	1	C10H14N3O2-
211.0724	1	C9H11N2O4-
212.1408	1	C10H18N3O2-
