Mass spectrum: Microcystin-YR; LC-ESI-QFT; MS2; CE: 90; R=35000; [M-H]-
Name: Microcystin-YR
Name: (5R,8S,11R,12R,15S,18S,19S,22R)-15-[3-(diaminomethylideneamino)propyl]-8-[(4-hydroxyphenyl)methyl]-18-[(1E,3E,5S,6S)-6-methoxy-3,5-dimethyl-7-phenylhepta-1,3-dienyl]-1,5,12,19-tetramethyl-2-methylidene-3,6,9,13,16,20,25-heptaoxo-1,4,7,10,14,17,21-heptazacyclopentacosane-11,22-dicarboxylic acid
Formula: C52H72N10O13
Exact mass: 1044.52803
SMILES: O=C2N[C@@H](\C=C\C(=C\[C@H](C)[C@@H](OC)Cc1ccccc1)C)[C@@H](C(=O)N[C@@H](C(=O)O)CCC(=O)N(/C(=C)C(=O)N[C@@H](C(=O)N[C@H](C(=O)N[C@@H](C(=O)O)[C@H](C(=O)N[C@H]2CCC/N=C(\N)N)C)Cc3ccc(O)cc3)C)C)C
InChI: InChI=1S/C52H72N10O13/c1-28(25-29(2)41(75-8)27-34-13-10-9-11-14-34)16-21-37-30(3)44(65)59-39(50(71)72)22-23-42(64)62(7)33(6)47(68)56-32(5)46(67)60-40(26-35-17-19-36(63)20-18-35)49(70)61-43(51(73)74)31(4)45(66)58-38(48(69)57-37)15-12-24-55-52(53)54/h9-11,13-14,16-21,25,29-32,37-41,43,63H,6,12,15,22-24,26-27H2,1-5,7-8H3,(H,56,68)(H,57,69)(H,58,66)(H,59,65)(H,60,67)(H,61,70)(H,71,72)(H,73,74)(H4,53,54,55)/b21-16+,28-25+/t29-,30-,31+,32+,37-,38-,39+,40-,41-,43+/m0/s1
Instrument: Q Exactive Orbitrap Thermo Scientific
Instrument type: LC-ESI-QFT
Ms type: MS2
Ion mode: NEGATIVE
Ionization: ESI
Fragmentation mode: HCD
Collision energy: 90 (nominal)
Resolution: 35000
Column name: XBridge C18 3.5um, 2.1x50mm, Waters
Retention time: 10.0 min
Base peak: 1043.5209
Precursor m/z: 1043.5208
Precursor type: [M-H]-
m/z	relative intensity	assigned
72.0091	30	C2H2NO2-
72.0455	99	C3H6NO-
73.0296	24	C3H5O2-
73.0407	317	C2H5N2O-
74.0248	107	C2H4NO2-
80.0505	44	C5H6N-
81.022	9	C4H3NO-
81.0459	21	C4H5N2-
82.0173	18	C3H2N2O-
82.0299	110	C4H4NO-
83.0251	139	C3H3N2O-
83.0615	24	C4H7N2-
84.0455	156	C4H6NO-
85.0407	33	C3H5N2O-
85.0659	4	C5H9O-
86.0612	5	C4H8NO-
87.0564	148	C3H7N2O-
88.0404	15	C3H6NO2-
91.0553	21	C7H7-
92.0507	4	C6H6N-
93.0346	205	C6H5O-
94.0298	27	C5H4NO-
95.0251	62	C4H3N2O-
95.0377	15	C5H5NO-
95.0501	6	C6H7O-
96.0329	21	C4H4N2O-
96.0456	33	C5H6NO-
97.0407	80	C4H5N2O-
98.0123	29	C3H2N2O2-
98.0247	18	C4H4NO2-
98.0611	4	C5H8NO-
99.02	98	C3H3N2O2-
99.0564	121	C4H7N2O-
101.0358	5	C3H5N2O2-
101.072	15	C4H9N2O-
102.0561	5	C4H8NO2-
106.0425	6	C7H6O-
106.0661	5	C7H8N-
107.0503	49	C7H7O-
107.0616	10	C6H7N2-
108.0328	45	C5H4N2O-
108.0455	33	C6H6NO-
109.017	42	C5H3NO2-
109.0408	422	C5H5N2O-
110.0248	413	C5H4NO2-
110.0359	21	C4H4N3O-
110.0485	38	C5H6N2O-
111.02	79	C4H3N2O2-
111.0326	4	C5H5NO2-
111.0564	25	C5H7N2O-
112.0404	89	C5H6NO2-
112.0768	7	C6H10NO-
113.0357	127	C4H5N2O2-
113.0721	44	C5H9N2O-
117.0346	47	C8H5O-
119.0502	999	C8H7O-
120.0331	14	C6H4N2O-
120.0455	72	C7H6NO-
121.03	6	C7H5O2-
121.0406	16	C6H5N2O-
121.0774	4	C7H9N2-
122.0248	7	C6H4NO2-
122.0486	21	C6H6N2O-
122.0612	6	C7H8NO-
122.0977	6	C8H12N-
123.0199	26	C5H3N2O2-
123.0327	43	C6H5NO2-
123.0439	18	C5H5N3O-
123.0564	55	C6H7N2O-
124.0279	7	C5H4N2O2-
124.0404	98	C6H6NO2-
124.0515	73	C5H6N3O-
124.0769	7	C7H10NO-
125.0356	25	C5H5N2O2-
125.0594	6	C5H7N3O-
125.0721	23	C6H9N2O-
126.0673	191	C5H8N3O-
127.0513	99	C5H7N2O2-
128.0353	198	C5H6NO3-
130.0985	8	C5H12N3O-
131.0379	33	C8H5NO-
132.0456	18	C8H6NO-
133.0533	109	C8H7NO-
134.0612	57	C8H8NO-
135.0326	23	C7H5NO2-
135.0563	8	C7H7N2O-
136.0404	8	C7H6NO2-
136.0768	4	C8H10NO-
137.0482	7	C7H7NO2-
137.0595	5	C6H7N3O-
137.0719	6	C7H9N2O-
138.0435	53	C6H6N2O2-
138.0562	5	C7H8NO2-
138.0677	4	C6H8N3O-
139.0516	6	C6H7N2O2-
140.083	16	C6H10N3O-
142.0621	18	C5H8N3O2-
144.0454	147	C9H6NO-
144.0777	59	C5H10N3O2-
145.0658	5	C10H9O-
146.0605	3	C9H8NO-
148.0406	4	C8H6NO2-
149.0484	3	C8H7NO2-
149.0718	7	C8H9N2O-
150.0559	34	C8H8NO2-
152.0468	17	C6H6N3O2-
152.0826	7	C7H10N3O-
153.0673	11	C7H9N2O2-
153.1033	4	C8H13N2O-
154.0986	6	C7H12N3O-
157.0531	14	C10H7NO-
160.0403	20	C9H6NO2-
162.0559	60	C9H8NO2-
180.1148	4	C9H14N3O-
181.0982	16	C9H13N2O2-
193.0729	5	C8H9N4O2-
