Mass spectrum: Man6GlcNAc-II; LC-ESI-QQ; MS2; CE:40V; ODS
Name: Man6GlcNAc-II
Name: Man-alpha-1-6(Man-alpha-1-3)Man-alpha-1-6(Man-alpha-1-2Man-alpha-1-3)Man-beta-1-4GlcNAc
Class: Natural Product; Oligosaccharide; N-linked glycan; High-mannose type
Formula: C44H75NO36
Exact mass: 1193.40688
SMILES: C(O)C(O1)C(O)C(C(O)C(OC(C2O)C(O)C(COC(O7)C(C(C(O)C(CO)7)O)O)OC2OCC(C(O)4)OC(C(O)C(OC(O5)C(OC(C(O)6)OC(C(O)C6O)CO)C(C(O)C5CO)O)4)OC(C3O)C(OC(C3NC(C)=O)O)CO)1)O
InChI: InChI=1/C44H75NO36/c1-9(51)45-17-24(58)34(14(6-50)71-38(17)68)78-43-33(67)36(80-44-37(28(62)21(55)13(5-49)75-44)81-42-31(65)27(61)20(54)12(4-48)74-42)23(57)16(77-43)8-70-40-32(66)35(79-41-30(64)26(60)19(53)11(3-47)73-41)22(56)15(76-40)7-69-39-29(63)25(59)18(52)10(2-46)72-39/h10-44,46-50,52-68H,2-8H2,1H3,(H,45,51)/t10-,11-,12-,13-,14-,15-,16-,17-,18-,19-,20-,21-,22-,23-,24-,25+,26+,27+,28+,29+,30+,31+,32+,33+,34-,35+,36+,37+,38-,39+,40+,41-,42-,43+,44-/m1/s1/f/h45H
Instrument: 2695 HPLC Quadro Micro API, Waters
Instrument type: LC-ESI-QQ
Ms type: MS2
Ion mode: POSITIVE
Collision energy: 40.0 V
Ionization: ESI
Column name: Wakosil 5C18-200 2.0 mm X 250 mm (Wako)
Retention time: 14.490 min
Derivative form: C53H86N2O37
Derivative mass: 1342.49094
Derivative type: ABEE (p-Aminobenzoic acid ethyl ester)
Precursor m/z: 1343.30
Precursor type: [M+H]+
m/z	relative intensity
324.8	88
325.5	50
326.3	34
370.4	361
371.1	999
371.9	346
372.6	44
486.7	41
532.5	290
533.4	257
534.2	101
694.6	72
695.4	147
696.2	42
856.0	67
856.8	107
857.9	122
1017.8	22
1020.0	39
1182.2	21
1343.1	31
