Mass spectrum: Microcystin-LA; LC-ESI-QFT; MS2; CE: 60; R=35000; [M+H]+
Name: Microcystin-LA
Name: (5R,8S,11R,12S,15S,18S,19S,22R)-18-[(1E,3E,5S,6S)-6-methoxy-3,5-dimethyl-7-phenylhepta-1,3-dienyl]-1,5,12,15,19-pentamethyl-2-methylidene-8-(2-methylpropyl)-3,6,9,13,16,20,25-heptaoxo-1,4,7,10,14,17,21-heptazacyclopentacosane-11,22-dicarboxylic acid
Formula: C46H67N7O12
Exact mass: 909.48477
SMILES: O=C2N[C@@H](\C=C\C(=C\[C@H](C)[C@@H](OC)Cc1ccccc1)C)[C@@H](C(=O)N[C@@H](C(=O)O)CCC(=O)N(/C(=C)C(=O)N[C@@H](C(=O)N[C@H](C(=O)N[C@@H](C(=O)O)[C@@H](C(=O)N[C@H]2C)C)CC(C)C)C)C)C
InChI: InChI=1S/C46H67N7O12/c1-24(2)21-35-44(60)52-38(46(63)64)28(6)40(56)47-29(7)41(57)49-33(18-17-25(3)22-26(4)36(65-11)23-32-15-13-12-14-16-32)27(5)39(55)50-34(45(61)62)19-20-37(54)53(10)31(9)43(59)48-30(8)42(58)51-35/h12-18,22,24,26-30,33-36,38H,9,19-21,23H2,1-8,10-11H3,(H,47,56)(H,48,59)(H,49,57)(H,50,55)(H,51,58)(H,52,60)(H,61,62)(H,63,64)/b18-17+,25-22+/t26-,27-,28-,29-,30+,33-,34+,35-,36-,38+/m0/s1
Instrument: Q Exactive Orbitrap Thermo Scientific
Instrument type: LC-ESI-QFT
Ms type: MS2
Ion mode: POSITIVE
Ionization: ESI
Fragmentation mode: HCD
Collision energy: 60 (nominal)
Resolution: 35000
Column name: XBridge C18 3.5um, 2.1x50mm, Waters
Retention time: 12.2 min
Base peak: 910.4915
Precursor m/z: 910.492
Precursor type: [M+H]+
m/z	relative intensity	assigned
65.0385	22	C5H5+
67.0542	14	C5H7+
68.0494	6	C4H6N+
69.0334	34	C4H5O+
69.0698	14	C5H9+
70.0651	8	C4H8N+
71.0604	1	C3H7N2+
74.0236	11	C2H4NO2+
77.0384	10	C6H5+
78.0464	1	C6H6+
79.0542	128	C6H7+
80.0494	14	C5H6N+
81.0335	1	C5H5O+
81.0698	12	C6H9+
82.0287	16	C4H4NO+
82.0651	98	C5H8N+
83.0491	1	C5H7O+
84.0443	169	C4H6NO+
84.0807	16	C5H10N+
85.0283	10	C4H5O2+
85.0648	1	C5H9O+
86.0964	400	C5H12N+
88.0392	3	C3H6NO2+
89.0709	15	C3H9N2O+
90.0548	1	C3H8NO2+
91.0542	326	C7H7+
92.062	4	C7H8+
93.0698	222	C7H9+
94.0651	22	C6H8N+
94.0733	8	C2H10N2O2+
95.0491	72	C6H7O+
95.0854	24	C7H11+
96.0444	4	C5H6NO+
96.0807	13	C6H10N+
97.076	1	C5H9N2+
98.0601	4	C5H8NO+
99.0916	88	C5H11N2+
100.0392	3	C4H6NO2+
100.0756	4	C5H10NO+
101.0711	1	C4H9N2O+
102.0463	4	C8H6+
102.055	22	C4H8NO2+
103.0542	442	C8H7+
104.0576	18	C3H8N2O2+
105.0698	416	C8H9+
106.065	1	C7H8N+
106.0732	16	C3H10N2O2+
107.0855	999	C8H11+
108.068	4	C6H8N2+
108.0808	9	C7H10N+
108.0888	43	C3H12N2O2+
109.0647	53	C7H9O+
109.1009	3	C8H13+
110.06	70	C6H8NO+
110.0965	7	C7H12N+
111.0553	1	C5H7N2O+
111.0634	1	CH9N3O3+
111.0917	1	C6H11N2+
112.0391	9	C5H6NO2+
112.0759	7	C6H10NO+
112.112	14	C7H14N+
113.0233	28	C5H5O3+
113.0709	4	C5H9N2O+
114.0549	1	C5H8NO2+
115.0542	61	C9H7+
116.0576	1	C4H8N2O2+
116.0619	4	C9H8+
117.0698	146	C9H9+
118.065	1	C8H8N+
118.0731	7	C4H10N2O2+
119.0604	10	C7H7N2+
119.0855	54	C9H11+
120.057	9	C8H8O+
120.0807	11	C8H10N+
120.0931	6	C9H12+
121.0645	9	C8H9O+
121.076	29	C7H9N2+
121.1011	18	C9H13+
122.0599	13	C7H8NO+
122.0724	1	C8H10O+
122.0839	2	C7H10N2+
122.0963	18	C8H12N+
123.0678	1	C7H9NO+
123.0804	4	C8H11O+
123.0916	16	C7H11N2+
124.0757	29	C7H10NO+
124.112	30	C8H14N+
125.0711	6	C6H9N2O+
125.1072	1	C7H13N2+
126.0549	3	C6H8NO2+
126.1279	2	C8H16N+
127.0865	821	C6H11N2O+
128.0621	25	C10H8+
128.0705	31	C6H10NO2+
128.0898	28	CH12N4O3+
129.0697	25	C10H9+
129.0745	1	CH11N3O4+
130.0498	34	C5H8NO3+
130.0651	12	C9H8N+
130.0733	1	C5H10N2O2+
130.0777	8	C10H10+
131.0854	71	C10H11+
132.0808	9	C9H10N+
132.0888	3	C5H12N2O2+
133.0648	4	C9H9O+
133.1011	36	C10H13+
134.0961	6	C9H12N+
135.0804	456	C9H11O+
135.1167	377	C10H15+
136.0755	7	C8H10NO+
136.0836	20	C4H12N2O3+
136.1121	1	C9H14N+
136.1201	24	C5H16N2O2+
137.0709	4	C7H9N2O+
137.0959	3	C9H13O+
138.0547	99	C7H8NO2+
139.0579	1	H7N6O3+
139.0864	13	C7H11N2O+
140.0705	8	C7H10NO2+
141.0649	1	C4H7N5O+
141.07	6	C11H9+
141.1018	4	C7H13N2O+
142.0775	4	C11H10+
143.0855	38	C11H11+
144.0806	1	C10H10N+
144.0885	1	C4H10N5O+
144.0933	3	C11H12+
145.1012	53	C11H13+
146.0964	35	C10H12N+
146.1091	15	C11H14+
147.0803	3	C10H11O+
147.0916	1	C9H11N2+
147.1042	1	C10H13N+
147.1168	4	C11H15+
148.0757	1	C9H10NO+
148.1119	5	C10H14N+
149.0709	67	C8H9N2O+
150.0548	7	C8H8NO2+
150.0913	1	C9H12NO+
150.1278	3	C10H16N+
151.0865	9	C8H11N2O+
152.0707	4	C8H10NO2+
152.1069	7	C9H14NO+
153.0698	1	C12H9+
153.1023	6	C8H13N2O+
153.1382	1	C9H17N2+
154.0776	3	C12H10+
154.0972	1	C7H12N3O+
155.0812	116	C7H11N2O2+
156.0653	31	C7H10NO3+
156.0846	2	H10N7O3+
157.1011	4	C12H13+
157.1333	13	C8H17N2O+
158.0726	1	C11H10O+
158.0965	8	C11H12N+
159.0804	6	C11H11O+
159.1169	13	C12H15+
160.1119	8	C11H14N+
160.1192	1	C5H14N5O+
161.096	18	C11H13O+
161.1323	3	C12H17+
162.0912	1	C10H12NO+
162.1276	12	C11H16N+
163.1116	103	C11H15O+
164.07	1	C9H10NO2+
164.1151	5	C6H16N2O3+
165.0705	8	C13H9+
165.1022	4	C9H13N2O+
166.0776	5	C13H10+
167.0813	253	C8H11N2O2+
168.0654	19	C8H10NO3+
168.0846	6	C3H12N4O4+
169.1019	6	C13H13+
169.1331	1	C9H17N2O+
170.0812	1	C8H12NO3+
171.0802	4	C12H11O+
171.1165	5	C13H15+
172.0882	1	C12H12O+
172.1118	4	C12H14N+
173.0916	78	C7H13N2O3+
174.0959	2	C2H14N4O5+
174.1039	5	C12H14O+
175.0989	1	C11H13NO+
176.0704	1	C10H10NO2+
176.1069	5	C11H14NO+
177.1026	1	C10H13N2O+
178.0779	1	C14H10+
178.0859	4	C10H12NO2+
178.1225	4	C11H16NO+
179.0858	10	H13N5O6+
180.0932	9	C14H12+
181.1016	17	C14H13+
181.1334	21	C10H17N2O+
182.0805	1	C9H12NO3+
183.1168	1	C14H15+
183.1489	2	C10H19N2O+
184.1119	5	C13H14N+
187.1117	4	C13H15O+
188.1068	6	C12H14NO+
188.1434	10	C13H18N+
190.1223	4	C12H16NO+
190.1588	5	C13H20N+
192.0933	3	C15H12+
192.113	1	C10H14N3O+
193.1003	5	C15H13+
194.1088	5	C15H14+
194.1649	7	C11H20N3+
195.0761	88	C9H11N2O3+
195.1166	13	C15H15+
196.0601	19	C9H10NO4+
196.0791	5	C2H10N7O4+
197.1279	1	C10H17N2O2+
200.1433	4	C14H18N+
201.0867	9	C8H13N2O4+
205.1012	1	C16H13+
207.1165	5	C16H15+
208.1242	1	C16H16+
211.0712	3	C9H11N2O4+
213.0867	142	C9H13N2O4+
214.0705	1	C9H12NO5+
214.0902	7	C4H14N4O6+
216.1379	1	C14H18NO+
218.1538	14	C14H20NO+
220.1078	1	C11H14N3O2+
221.0916	1	C11H13N2O3+
222.1597	2	C12H20N3O+
223.1085	1	C11H15N2O3+
226.1589	17	C16H20N+
227.1621	1	C11H21N3O2+
228.138	1	C15H18NO+
232.124	4	C18H16+
237.1633	3	C18H21+
239.066	15	C10H11N2O5+
239.1018	2	C11H15N2O4+
243.1333	1	C11H19N2O4+
246.1485	5	C15H20NO2+
