Mass spectrum: Man6GlcNAc-V; LC-ESI-QQ; MS2; CE:30V; Amide
Name: Man6GlcNAc-V
Name: Man-alpha-1-3Man-alpha-1-6(Man-alpha-1-2Man-alpha-1-2Man-alpha-1-3)Man-beta-1-4GlcNAc
Class: Natural Product; Oligosaccharide; N-linked glycan; High-mannose type
Formula: C44H75NO36
Exact mass: 1193.40688
SMILES: N(C(C)=O)C(C1O)C(O)OC(C1OC(O5)C(C(C(C5COC(C6O)OC(C(C(OC(C(O)7)OC(C(O)C7O)CO)6)O)CO)O)OC(C2OC(O4)C(C(O)C(C4CO)O)OC(C(O)3)OC(C(O)C(O)3)CO)OC(C(O)C(O)2)CO)O)CO
InChI: InChI=1/C44H75NO36/c1-9(52)45-17-24(59)33(15(7-51)70-38(17)68)77-42-32(67)35(23(58)16(76-42)8-69-39-31(66)34(22(57)14(6-50)71-39)78-40-29(64)25(60)18(53)10(2-46)72-40)79-43-37(28(63)21(56)12(4-48)74-43)81-44-36(27(62)20(55)13(5-49)75-44)80-41-30(65)26(61)19(54)11(3-47)73-41/h10-44,46-51,53-68H,2-8H2,1H3,(H,45,52)/t10-,11-,12-,13-,14-,15-,16-,17-,18-,19-,20-,21-,22-,23-,24-,25+,26+,27+,28+,29+,30+,31+,32+,33-,34+,35+,36+,37+,38-,39+,40-,41-,42+,43-,44-/m1/s1/f/h45H
Instrument: 2695 HPLC Quadro Micro API, Waters
Instrument type: LC-ESI-QQ
Ms type: MS2
Ion mode: POSITIVE
Collision energy: 30.0 V
Ionization: ESI
Column name: TSK-GEL Amide-80 2.0 mm X 250 mm (TOSOH)
Retention time: 25.695 min
Derivative form: C53H86N2O37
Derivative mass: 1342.49094
Derivative type: ABEE (p-Aminobenzoic acid ethyl ester)
Precursor m/z: 1343.30
Precursor type: [M+H]+
m/z	relative intensity
370.4	272
371.2	999
371.8	90
372.4	198
532.3	227
533.2	380
534.3	126
694.7	191
695.8	178
856.8	88
857.8	308
1018.3	197
1019.2	405
1020.1	199
1179.9	79
1181.0	318
1182.2	150
1341.2	72
1341.9	223
1342.9	713
1343.9	742
1344.8	321
