Mass spectrum: Ciprofloxacin; LC-ESI-QTOF; MS2; CE: Ramp 22.2-33.4 eV; R=35000; [M+H]+
Name: Ciprofloxacin
Name: 1-cyclopropyl-6-fluoro-4-oxo-7-piperazin-1-ylquinoline-3-carboxylic acid
Formula: C17H18FN3O3
Exact mass: 331.1332
SMILES: c1c2c(cc(c1F)N3CCNCC3)n(cc(c2=O)C(=O)O)C4CC4
InChI: InChI=1S/C17H18FN3O3/c18-13-7-11-14(8-15(13)20-5-3-19-4-6-20)21(10-1-2-10)9-12(16(11)22)17(23)24/h7-10,19H,1-6H2,(H,23,24)
Instrument: Bruker maXis Impact
Instrument type: LC-ESI-QTOF
Ms type: MS2
Ion mode: POSITIVE
Ionization: ESI
Fragmentation mode: CID
Collision energy: Ramp 22.2-33.4 eV
Resolution: 35000
Column name: Acclaim RSLC C18 2.2um, 2.1x100mm, Thermo
Retention time: 4.5 min
Base peak: 363.1494
Precursor m/z: 332.1405
Precursor type: [M+H]+
m/z	relative intensity	assigned
204.0711	12	C11H9FN2O+
205.0824	8	C10H11N3O2+
228.1592	10	C11H19FN3O+
231.0582	121	C12H8FN2O2+
231.0961	7	C13H12FN2O+
232.063	22	C15H8N2O+
245.1106	58	C14H14FN2O+
246.1137	6	C14H16NO3+
249.0701	50	C15H8FN3+
250.0705	8	C15H10N2O2+
268.1429	5	C16H18N3O+
272.1212	6	C17H17FO2+
273.091	8	C14H12FN3O2+
286.1366	6	C16H17FN3O+
288.1534	50	C16H19FN3O+
289.1557	15	C14H19N5O2+
312.1366	26	C17H18N3O3+
314.1319	90	C17H17FN3O2+
315.1357	12	C17H18FN3O2+
332.1449	999	C17H19FN3O3+
333.1474	186	C15H19N5O4+
334.1497	23	C16H19FN4O3+
