Mass spectrum: Microcystin-LY; LC-ESI-QFT; MS2; CE: 15; R=35000; [M+H]+
Name: Microcystin-LY
Name: 15-[(4-hydroxyphenyl)methyl]-18-[(1Z,3E)-6-methoxy-3,5-dimethyl-7-phenylhepta-1,3-dienyl]-1,5,12,19-tetramethyl-2-methylidene-8-(2-methylpropyl)-3,6,9,13,16,20,25-heptaoxo-1,4,7,10,14,17,21-heptazacyclopentacosane-11,22-dicarboxylic acid
Formula: C52H71N7O13
Exact mass: 1001.51099
SMILES: O=C(O)C2NC(=O)C(NC(=O)C(NC(=O)\C(=C)N(C(=O)CCC(C(=O)O)NC(=O)C(C)C(/C=C\C(=C\C(C)C(OC)Cc1ccccc1)C)NC(=O)C(NC(=O)C2C)Cc3ccc(O)cc3)C)C)CC(C)C
InChI: InChI=1S/C52H71N7O13/c1-28(2)24-40-50(67)58-44(52(70)71)32(6)46(63)56-41(26-36-17-19-37(60)20-18-36)49(66)54-38(21-16-29(3)25-30(4)42(72-10)27-35-14-12-11-13-15-35)31(5)45(62)55-39(51(68)69)22-23-43(61)59(9)34(8)48(65)53-33(7)47(64)57-40/h11-21,25,28,30-33,38-42,44,60H,8,22-24,26-27H2,1-7,9-10H3,(H,53,65)(H,54,66)(H,55,62)(H,56,63)(H,57,64)(H,58,67)(H,68,69)(H,70,71)/b21-16-,29-25+
Instrument: Q Exactive Orbitrap Thermo Scientific
Instrument type: LC-ESI-QFT
Ms type: MS2
Ion mode: POSITIVE
Ionization: ESI
Fragmentation mode: HCD
Collision energy: 15 (nominal)
Resolution: 35000
Column name: XBridge C18 3.5um, 2.1x50mm, Waters
Retention time: 12.4 min
Base peak: 1002.5178
Precursor m/z: 1002.5183
Precursor type: [M+H]+
m/z	relative intensity	assigned
84.0442	1	C4H6NO+
86.0962	10	C5H12N+
91.0541	5	C7H7+
95.0853	1	C7H11+
105.0697	2	C8H9+
107.0851	12	C8H11+
124.1119	10	C8H14N+
127.0864	5	C6H11N2O+
130.0497	1	C5H8NO3+
131.0855	1	C10H11+
135.0801	51	C9H11O+
135.1164	8	C10H15+
136.0755	5	C8H10NO+
138.0543	1	C7H8NO2+
143.0854	7	C11H11+
145.1013	1	C11H13+
147.1166	2	C11H15+
155.0808	9	C7H11N2O2+
157.1335	1	C8H17N2O+
161.096	1	C11H13O+
163.1115	92	C11H15O+
167.0812	1	C8H11N2O2+
173.0958	3	C12H13O+
175.1113	7	C12H15O+
181.0971	3	C9H13N2O2+
185.1282	6	C9H17N2O2+
187.1111	1	C13H15O+
195.0761	53	C9H11N2O3+
209.1319	3	C16H17+
213.0867	81	C9H13N2O4+
218.117	1	C13H16NO2+
218.1536	11	C14H20NO+
225.1268	1	C14H15N3+
226.1586	16	C16H20N+
237.1232	8	C12H17N2O3+
237.1634	21	C18H21+
239.066	3	C10H11N2O5+
243.1336	1	C11H19N2O4+
246.1485	19	C15H20NO2+
247.1072	3	C13H15N2O3+
247.1474	1	C19H19+
250.1547	1	C13H20N3O2+
251.1023	3	C12H15N2O4+
258.1849	190	C17H24NO+
264.1341	5	C13H18N3O3+
264.1581	1	C15H22NO3+
265.118	66	C13H17N2O4+
265.1583	50	C19H21O+
266.1125	1	C10H14N6O3+
268.1652	34	C13H22N3O3+
269.1126	1	C12H17N2O5+
269.1896	1	C19H25O+
274.1434	5	C16H20NO3+
282.1848	8	C19H24NO+
292.1281	4	C14H18N3O4+
292.1538	26	C16H22NO4+
293.1124	24	
296.1245	1	C13H18N3O5+
297.1845	71	C20H25O2+
309.1801	4	C14H23N5O3+
310.1393	154	C14H20N3O5+
314.2113	13	C20H28NO2+
320.2006	8	C22H26NO+
329.1857	9	C19H25N2O3+
334.1757	1	C17H24N3O4+
347.1963	40	C19H27N2O4+
348.1959	5	C23H26NO2+
351.2024	4	C17H27N4O4+
352.1846	1	C15H24N6O4+
352.227	7	C23H30NO2+
357.181	11	C20H25N2O4+
364.1503	9	C17H22N3O6+
366.2062	2	C23H28NO3+
375.1913	531	C20H27N2O5+
378.2018	4	C19H28N3O5+
379.1973	1	C18H27N4O5+
380.2219	18	C24H30NO3+
394.2009	14	C24H28NO4+
397.208	74	C18H29N4O6+
400.2227	4	C22H30N3O4+
405.2133	13	C20H29N4O5+
406.1971	28	C20H28N3O6+
412.1861	1	C22H26N3O5+
416.2182	1	C22H30N3O5+
423.2235	270	C20H31N4O6+
426.2273	28	C25H32NO5+
428.2169	3	C23H30N3O5+
431.2318	4	C25H29N5O2+
435.2233	3	C21H31N4O6+
443.2532	6	C25H35N2O5+
446.2284	298	C23H32N3O6+
449.2396	54	C22H33N4O6+
462.2347	2	C22H32N5O6+
463.2578	8	C26H33N5O3+
472.2448	6	C25H34N3O6+
476.2502	71	C23H34N5O6+
477.2358	255	C25H35NO8+
481.2704	9	C28H37N2O5+
494.2607	999	
508.2402	31	
509.2643	349	C29H37N2O6+
510.2678	6	C24H38N4O8+
514.2641	8	C25H40NO10+
518.2665	2	C30H36N3O5+
525.2713	6	C28H37N4O6+
529.2297	7	C26H33N4O8+
531.3194	15	C28H43N4O6+
532.2763	65	C40H36O+
541.3024	14	C31H43NO7+
542.2618	4	C29H38N2O8+
548.2754	49	C31H38N3O6+
559.316	388	C34H43N2O5+
560.271	492	C41H36O2+
561.2746	6	C36H37N2O4+
562.292	2	C33H36N7O2+
577.2973	462	C41H39NO2+
580.3011	208	C32H42N3O7+
585.328	2	C31H45N4O7+
596.3069	26	
601.2867	17	C30H41N4O9+
639.3384	1	C34H47N4O8+
643.3071	22	
660.3353	8	C31H46N7O9+
661.3599	33	
671.3025	31	C46H41NO4+
683.3753	32	
689.313	83	C46H43NO5+
693.3849	215	
694.3876	4	C45H50N4O3+
702.3867	7	C39H52N5O7+
706.3398	19	
714.3695	3	C48H48N3O3+
727.3288	30	C49H45NO5+
734.4117	38	C40H56N5O8+
767.3977	41	C39H55N6O10+
769.3442	1	C42H49N4O10+
772.3501	54	
799.4394	6	C44H59N6O8+
805.4128	19	C42H57N6O10+
817.4489	118	C44H61N6O9+
822.4348	49	C51H58N4O6+
823.4237	96	C42H59N6O11+
833.4077	43	C45H59N3O12+
840.4476	13	C42H62N7O11+
848.4409	4	C45H62N5O11+
850.4336	311	C43H60N7O11+
851.4177	510	C43H59N6O12+
868.4439	930	C43H62N7O12+
869.4457	28	C49H63N3O11+
901.4688	21	C48H65N6O11+
924.4886	4	C52H68N4O11+
935.4543	4	C51H63N6O11+
939.4861	11	C51H67N6O11+
940.5163	4	C48H72N6O13+
952.4796	31	C51H66N7O11+
953.4651	30	C51H65N6O12+
956.5128	28	C51H70N7O11+
957.4978	31	C51H69N6O12+
966.4997	8	C52H68N7O11+
967.4807	24	C52H67N6O12+
970.4906	82	C51H68N7O12+
971.4839	4	C52H69N5O13+
974.5218	15	C51H72N7O12+
984.5067	279	C52H70N7O12+
985.4913	162	C52H69N6O13+
1002.5173	567	C52H72N7O13+
