Mass spectrum: Microcystin-YR; LC-ESI-QFT; MS2; CE: 60; R=35000; [M+H]+
Name: Microcystin-YR
Name: (5R,8S,11R,12R,15S,18S,19S,22R)-15-[3-(diaminomethylideneamino)propyl]-8-[(4-hydroxyphenyl)methyl]-18-[(1E,3E,5S,6S)-6-methoxy-3,5-dimethyl-7-phenylhepta-1,3-dienyl]-1,5,12,19-tetramethyl-2-methylidene-3,6,9,13,16,20,25-heptaoxo-1,4,7,10,14,17,21-heptazacyclopentacosane-11,22-dicarboxylic acid
Formula: C52H72N10O13
Exact mass: 1044.52803
SMILES: O=C2N[C@@H](\C=C\C(=C\[C@H](C)[C@@H](OC)Cc1ccccc1)C)[C@@H](C(=O)N[C@@H](C(=O)O)CCC(=O)N(/C(=C)C(=O)N[C@@H](C(=O)N[C@H](C(=O)N[C@@H](C(=O)O)[C@H](C(=O)N[C@H]2CCC/N=C(\N)N)C)Cc3ccc(O)cc3)C)C)C
InChI: InChI=1S/C52H72N10O13/c1-28(25-29(2)41(75-8)27-34-13-10-9-11-14-34)16-21-37-30(3)44(65)59-39(50(71)72)22-23-42(64)62(7)33(6)47(68)56-32(5)46(67)60-40(26-35-17-19-36(63)20-18-35)49(70)61-43(51(73)74)31(4)45(66)58-38(48(69)57-37)15-12-24-55-52(53)54/h9-11,13-14,16-21,25,29-32,37-41,43,63H,6,12,15,22-24,26-27H2,1-5,7-8H3,(H,56,68)(H,57,69)(H,58,66)(H,59,65)(H,60,67)(H,61,70)(H,71,72)(H,73,74)(H4,53,54,55)/b21-16+,28-25+/t29-,30-,31+,32+,37-,38-,39+,40-,41-,43+/m0/s1
Instrument: Q Exactive Orbitrap Thermo Scientific
Instrument type: LC-ESI-QFT
Ms type: MS2
Ion mode: POSITIVE
Ionization: ESI
Fragmentation mode: HCD
Collision energy: 60 (nominal)
Resolution: 35000
Column name: XBridge C18 3.5um, 2.1x50mm, Waters
Retention time: 9.9 min
Base peak: 523.2715
Precursor m/z: 1045.5353
Precursor type: [M+H]+
m/z	relative intensity	assigned
74.0236	2	C2H4NO2+
74.06	3	C3H8NO+
77.0386	38	C6H5+
79.0542	137	C6H7+
80.0495	23	C5H6N+
81.0335	7	C5H5O+
81.0447	1	C4H5N2+
81.0698	7	C6H9+
82.0288	23	C4H4NO+
82.0652	68	C5H8N+
83.0605	3	C4H7N2+
84.0444	230	C4H6NO+
85.0284	13	C4H5O2+
85.0396	3	C3H5N2O+
85.076	16	C4H9N2+
86.06	12	C4H8NO+
86.0714	4	C3H8N3+
87.0792	11	C3H9N3+
88.0757	2	C4H10NO+
89.0386	1	C7H5+
91.0542	546	C7H7+
92.062	6	C7H8+
93.0699	196	C7H9+
94.0411	2	C6H6O+
94.0651	24	C6H8N+
95.0491	240	C6H7O+
95.0604	53	C5H7N2+
95.0856	15	C7H11+
96.0444	12	C5H6NO+
96.0685	2	C5H8N2+
96.0808	12	C6H10N+
97.076	83	C5H9N2+
98.0601	110	C5H8NO+
99.0189	30	C3H3N2O2+
99.0554	5	C4H7N2O+
99.0917	83	C5H11N2+
100.0756	5	C5H10NO+
101.0709	5	C4H9N2O+
102.0464	23	C8H6+
102.055	14	C4H8NO2+
103.0543	999	C8H7+
104.0576	5	C3H8N2O2+
105.0448	41	C6H5N2+
105.0699	581	C8H9+
106.065	2	C7H8N+
107.0492	37	C7H7O+
107.0855	606	C8H11+
108.068	3	C6H8N2+
108.0808	11	C7H10N+
109.0648	47	C7H9O+
109.0761	2	C6H9N2+
110.0237	5	C5H4NO2+
110.06	34	C6H8NO+
110.0712	7	C5H8N3+
110.0965	6	C7H12N+
111.0552	7	C5H7N2O+
111.0913	1	C6H11N2+
112.0394	22	C5H6NO2+
112.087	241	C5H10N3+
113.0233	31	C5H5O3+
113.071	54	C5H9N2O+
114.0549	15	C5H8NO2+
114.1026	40	C5H12N3+
115.0542	149	C9H7+
115.0866	135	C5H11N2O+
116.062	6	C9H8+
116.0705	9	C5H10NO2+
117.0699	210	C9H9+
118.0651	11	C8H8N+
119.0492	103	C8H7O+
119.0603	7	C7H7N2+
119.0856	38	C9H11+
120.057	21	C8H8O+
120.0808	44	C8H10N+
120.0934	7	C9H12+
121.0649	8	C8H9O+
121.0761	30	C7H9N2+
121.1011	7	C9H13+
122.06	13	C7H8NO+
122.0713	9	C6H8N3+
122.084	2	C7H10N2+
122.0964	10	C8H12N+
123.0553	8	C6H7N2O+
123.0917	15	C7H11N2+
124.0393	2	C6H6NO2+
124.0756	17	C7H10NO+
124.0871	1	C6H10N3+
124.1121	17	C8H14N+
125.0711	10	C6H9N2O+
125.1074	1	C7H13N2+
126.0549	5	C6H8NO2+
126.066	2	C5H8N3O+
127.0866	648	C6H11N2O+
128.0342	7	C5H6NO3+
128.062	16	C10H8+
128.0705	15	C6H10NO2+
129.0656	3	C5H9N2O2+
129.0699	24	C10H9+
130.0499	30	C5H8NO3+
130.0651	8	C9H8N+
130.0776	7	C10H10+
130.0975	22	C5H12N3O+
131.0727	2	C9H9N+
131.0856	41	C10H11+
132.0808	6	C9H10N+
133.1012	22	C10H13+
134.0599	3	C8H8NO+
134.0964	8	C9H12N+
135.0804	548	C9H11O+
135.1168	177	C10H15+
136.0756	507	C8H10NO+
137.0709	6	C7H9N2O+
137.0959	1	C9H13O+
137.1075	1	C8H13N2+
138.0549	47	C7H8NO2+
138.0659	10	C6H8N3O+
138.0911	3	C8H12NO+
138.1025	8	C7H12N3+
139.0865	12	C7H11N2O+
139.0977	17	C6H11N4+
140.0706	6	C7H10NO2+
140.0817	69	C6H10N3O+
141.0657	161	C6H9N2O2+
142.0779	2	C11H10+
143.0857	18	C11H11+
144.0809	5	C10H10N+
145.0647	3	C10H9O+
145.0891	1	C10H11N+
145.1012	28	C11H13+
146.06	10	C9H8NO+
146.0967	10	C10H12N+
146.109	2	C11H14+
147.0441	19	C9H7O2+
147.0758	3	C5H11N2O3+
147.0807	5	C10H11O+
147.1173	1	C11H15+
148.0757	6	C9H10NO+
148.112	3	C10H14N+
149.071	53	C8H9N2O+
150.055	2	C8H8NO2+
150.0914	2	C9H12NO+
150.1028	4	C8H12N3+
151.0865	14	C8H11N2O+
151.1104	1	C8H13N3+
152.0706	5	C8H10NO2+
152.0819	3	C7H10N3O+
152.1182	11	C8H14N3+
153.1022	28	C8H13N2O+
154.0777	1	C12H10+
154.0865	2	C8H12NO2+
155.0813	73	C7H11N2O2+
156.0652	1	C7H10NO3+
156.1244	2	C6H14N5+
157.1017	4	C12H13+
157.1083	56	C6H13N4O+
158.0919	23	C6H12N3O2+
159.0811	2	C11H11O+
159.1168	6	C12H15+
160.0758	3	C10H10NO+
160.1119	5	C11H14N+
161.0961	9	C11H13O+
161.1322	1	C12H17+
162.0551	1	C9H8NO2+
162.0912	7	C10H12NO+
162.1026	7	C9H12N3+
162.1276	8	C11H16N+
163.0866	7	C9H11N2O+
163.1117	47	C11H15O+
164.0704	13	C9H10NO2+
164.0817	2	C8H10N3O+
164.1183	2	C9H14N3+
165.0706	2	C13H9+
165.1025	9	C9H13N2O+
166.0779	3	C13H10+
166.086	1	C9H12NO2+
166.0973	6	C8H12N3O+
167.0813	177	C8H11N2O2+
168.0655	23	C8H10NO3+
168.1131	2	C8H14N3O+
169.0965	2	C8H13N2O2+
170.0968	2	C12H12N+
170.129	1	C8H16N3O+
171.1122	2	C8H15N2O2+
172.112	26	C12H14N+
173.096	3	C12H13O+
174.0913	9	C11H12NO+
174.1349	12	C6H16N5O+
175.1189	6	C6H15N4O2+
176.107	3	C11H14NO+
177.1134	1	C9H13N4+
178.0974	15	C9H12N3O+
178.1226	2	C11H16NO+
180.0933	6	C14H12+
180.1129	8	C9H14N3O+
181.0961	4	C7H11N5O+
181.1014	7	H15N5O6+
182.1035	35	C7H12N5O+
183.0876	32	C7H11N4O2+
186.0913	7	C12H12NO+
187.112	1	C13H15O+
188.1069	7	C12H14NO+
190.0973	1	C10H12N3O+
190.1594	2	C13H20N+
192.0937	2	CH14N5O6+
193.0964	2	C10H13N2O2+
194.1087	2	C15H14+
195.0762	80	C9H11N2O3+
195.1164	10	C15H15+
196.0602	20	C9H10NO4+
196.1081	3	C9H14N3O2+
197.107	2	C13H13N2+
198.1237	7	C9H16N3O2+
199.1075	1	C9H15N2O3+
200.1141	41	C7H14N5O2+
201.0977	28	C7H13N4O3+
201.1386	2	C13H17N2+
202.086	3	C12H12NO2+
203.1172	14	C12H15N2O+
204.1383	2	C13H18NO+
206.0922	7	C10H12N3O2+
207.1131	2	C11H15N2O2+
208.1082	9	C10H14N3O2+
209.0919	8	C10H13N2O3+
209.1323	8	C16H17+
211.0711	11	C9H11N2O4+
213.0869	116	C9H13N2O4+
217.1332	2	C13H17N2O+
218.1538	5	C14H20NO+
223.1085	2	C11H15N2O3+
223.1188	8	C10H15N4O2+
224.103	7	C10H14N3O3+
225.1346	7	C10H17N4O2+
226.1188	19	C10H16N3O3+
226.1587	9	C16H20N+
231.1126	13	C13H15N2O2+
233.0918	3	C12H13N2O3+
238.1223	2	H16N9O6+
239.0663	20	C10H11N2O5+
239.1025	6	C11H15N2O4+
240.1465	2	C10H18N5O2+
247.1078	2	C13H15N2O3+
258.1564	1	C10H20N5O3+
259.1078	1	C14H15N2O3+
263.1864	2	C14H23N4O+
280.2127	2	C14H26N5O+
318.1079	1	C14H10N10+
