Mass spectrum: Man5GlcNAc-V; LC-ESI-QQ; MS2; CE:30V; Amide
Name: Man5GlcNAc-V
Name: Man-alpha-1-2Man-alpha-1-3Man-alpha-1-6(Man-alpha-1-3)Man-beta-1-4GlcNAc
Class: Natural Product; Oligosaccharide; N-linked glycan; High-mannose type
Formula: C38H65NO31
Exact mass: 1031.35405
SMILES: C(CO)(C(O)4)OC(C(C4OC(O5)C(OC(C(O)6)OC(CO)C(O)C(O)6)C(O)C(C5CO)O)O)OCC(C(O)1)OC(OC(C(CO)3)C(O)C(NC(C)=O)C(O)O3)C(O)C1OC(O2)C(O)C(C(O)C(CO)2)O
InChI: InChI=1/C38H65NO31/c1-8(45)39-15-21(51)29(13(6-44)61-33(15)59)67-37-28(58)31(68-35-25(55)22(52)16(46)9(2-40)63-35)20(50)14(66-37)7-60-34-27(57)30(19(49)12(5-43)62-34)69-38-32(24(54)18(48)11(4-42)65-38)70-36-26(56)23(53)17(47)10(3-41)64-36/h9-38,40-44,46-59H,2-7H2,1H3,(H,39,45)/t9-,10-,11-,12-,13-,14-,15-,16-,17-,18-,19-,20-,21-,22+,23+,24+,25+,26+,27+,28+,29-,30+,31+,32+,33-,34+,35-,36-,37+,38-/m1/s1/f/h39H
Instrument: 2695 HPLC Quadro Micro API, Waters
Instrument type: LC-ESI-QQ
Ms type: MS2
Ion mode: POSITIVE
Collision energy: 30.0 V
Ionization: ESI
Column name: TSK-GEL Amide-80 2.0 mm X 250 mm (TOSOH)
Retention time: 19.634 min
Derivative form: C47H76N2O32
Derivative mass: 1180.43812
Derivative type: ABEE (p-Aminobenzoic acid ethyl ester)
Precursor m/z: 1181.02
Precursor type: [M+H]+
m/z	relative intensity
325.3	67
370.3	146
370.9	999
371.6	270
372.4	54
487.0	55
532.6	501
533.4	347
534.3	50
694.2	389
695.1	837
695.9	284
696.6	66
856.5	293
857.4	223
858.4	128
1018.5	227
1019.4	201
1020.3	51
1180.0	200
1180.9	516
1181.8	317
1182.6	101
