Mass spectrum: Cycloheximide; LC-APCI-QTOF; MS; POSITIVE
Name: Cycloheximide
Formula: C15H23NO4
Exact mass: 281.162708
SMILES: CC1CC(C(=O)C(C1)C(CC2CC(=O)NC(=O)C2)O)C
InChI: InChI=1S/C15H23NO4/c1-8-3-9(2)15(20)11(4-8)12(17)5-10-6-13(18)16-14(19)7-10/h8-12,17H,3-7H2,1-2H3,(H,16,18,19)
Instrument: Agilent 1200 RRLC; Agilent 6520 QTOF
Instrument type: LC-APCI-QTOF
Ms type: MS
Ion mode: POSITIVE
Column name: Agilent C8 Cartridge Column 2.1X30mm 3.5 micron (guard); Agilent SB-Aq 2.1x50mm 1.8 micron (analytical)
Retention time: 5.733
m/z	relative intensity
282.1699765	999
