Mass spectrum: Fluometuron; LC-ESI-QFT; MS2; CE: 60; R=35000; [M-H]-
Name: Fluometuron
Name: 1,1-dimethyl-3-[3-(trifluoromethyl)phenyl]urea
Formula: C10H11F3N2O
Exact mass: 232.08235
SMILES: CN(C)C(=O)NC1=CC=CC(=C1)C(F)(F)F
InChI: InChI=1S/C10H11F3N2O/c1-15(2)9(16)14-8-5-3-4-7(6-8)10(11,12)13/h3-6H,1-2H3,(H,14,16)
Instrument: Q Exactive Plus Orbitrap Thermo Scientific
Instrument type: LC-ESI-QFT
Ms type: MS2
Ion mode: NEGATIVE
Ionization: ESI
Fragmentation mode: HCD
Collision energy: 60 (nominal)
Resolution: 35000
Column name: XBridge C18 3.5um, 2.1x50mm, Waters
Retention time: 8.0 min
Base peak: 231.0748
Precursor m/z: 231.0751
Precursor type: [M-H]-
m/z	relative intensity	assigned
68.9957	1	CF3-
98.0036	16	C7N-
118.01	11	C7HFN-
134.0412	3	C8H5FN-
136.0204	2	C7H3FNO-
138.0162	15	C7H2F2N-
142.0473	16	C7H6F2N-
143.0116	1	C7H2F3-
143.0609	1	C9H7N2-
145.027	5	C7H4F3-
146.0049	111	C8HFNO-
154.0474	14	C8H6F2N-
158.0225	2	C7H3F3N-
160.038	186	C7H5F3N-
166.0111	303	C8H2F2NO-
168.0264	4	C8H4F2NO-
171.0566	2	C10H7N2O-
184.0216	16	C8H4F2NO2-
186.0173	999	C8H3F3NO-
187.0208	2	C6H3F2N3O2-
188.0328	12	C8H5F3NO-
191.0623	1	C10H8FN2O-
211.0692	2	C10H9F2N2O-
215.0442	3	C9H6F3N2O-
231.0751	109	C10H10F3N2O-
