Mass spectrum: Man6GlcNAc-VI; LC-ESI-QQ; MS2; CE:40V; Amide
Name: Man6GlcNAc-VI
Name: Man-alpha-1-2Man-alpha-1-3Man-alpha-1-6(Man-alpha-1-2Man-alpha-1-3)Man-beta-1-4GlcNAc
Class: Natural Product; Oligosaccharide; N-linked glycan; High-mannose type
Formula: C44H75NO36
Exact mass: 1193.40688
SMILES: C(O)C(C5O)OC(C(C(OC(C6OC(C(O)7)OC(CO)C(C7O)O)OC(CO)C(O)C6O)5)O)OCC(O1)C(C(OC(C(OC(C(O)4)OC(C(O)C4O)CO)3)OC(C(O)C3O)CO)C(C1OC(C2O)C(OC(C2NC(C)=O)O)CO)O)O
InChI: InChI=1/C44H75NO36/c1-9(52)45-17-24(59)33(15(7-51)70-38(17)68)77-42-32(67)35(79-44-37(28(63)21(56)13(5-49)75-44)81-41-30(65)26(61)19(54)11(3-47)73-41)23(58)16(76-42)8-69-39-31(66)34(22(57)14(6-50)71-39)78-43-36(27(62)20(55)12(4-48)74-43)80-40-29(64)25(60)18(53)10(2-46)72-40/h10-44,46-51,53-68H,2-8H2,1H3,(H,45,52)/t10-,11-,12-,13-,14-,15-,16-,17-,18-,19-,20-,21-,22-,23-,24-,25+,26+,27+,28+,29+,30+,31+,32+,33-,34+,35+,36+,37+,38-,39+,40-,41-,42+,43-,44-/m1/s1/f/h45H
Instrument: 2695 HPLC Quadro Micro API, Waters
Instrument type: LC-ESI-QQ
Ms type: MS2
Ion mode: POSITIVE
Collision energy: 40.0 V
Ionization: ESI
Column name: TSK-GEL Amide-80 2.0 mm X 250 mm (TOSOH)
Retention time: 25.021 min
Derivative form: C53H86N2O37
Derivative mass: 1342.49094
Derivative type: ABEE (p-Aminobenzoic acid ethyl ester)
Precursor m/z: 1343.30
Precursor type: [M+H]+
m/z	relative intensity
370.4	351
371.2	999
372.1	360
532.3	143
533.2	353
534.1	130
695.2	142
857.5	146
