Mass spectrum: Microcystin-LY; LC-ESI-QFT; MS2; CE: 45; R=35000; [M+H]+
Name: Microcystin-LY
Name: 15-[(4-hydroxyphenyl)methyl]-18-[(1Z,3E)-6-methoxy-3,5-dimethyl-7-phenylhepta-1,3-dienyl]-1,5,12,19-tetramethyl-2-methylidene-8-(2-methylpropyl)-3,6,9,13,16,20,25-heptaoxo-1,4,7,10,14,17,21-heptazacyclopentacosane-11,22-dicarboxylic acid
Formula: C52H71N7O13
Exact mass: 1001.51099
SMILES: O=C(O)C2NC(=O)C(NC(=O)C(NC(=O)\C(=C)N(C(=O)CCC(C(=O)O)NC(=O)C(C)C(/C=C\C(=C\C(C)C(OC)Cc1ccccc1)C)NC(=O)C(NC(=O)C2C)Cc3ccc(O)cc3)C)C)CC(C)C
InChI: InChI=1S/C52H71N7O13/c1-28(2)24-40-50(67)58-44(52(70)71)32(6)46(63)56-41(26-36-17-19-37(60)20-18-36)49(66)54-38(21-16-29(3)25-30(4)42(72-10)27-35-14-12-11-13-15-35)31(5)45(62)55-39(51(68)69)22-23-43(61)59(9)34(8)48(65)53-33(7)47(64)57-40/h11-21,25,28,30-33,38-42,44,60H,8,22-24,26-27H2,1-7,9-10H3,(H,53,65)(H,54,66)(H,55,62)(H,56,63)(H,57,64)(H,58,67)(H,68,69)(H,70,71)/b21-16-,29-25+
Instrument: Q Exactive Orbitrap Thermo Scientific
Instrument type: LC-ESI-QFT
Ms type: MS2
Ion mode: POSITIVE
Ionization: ESI
Fragmentation mode: HCD
Collision energy: 45 (nominal)
Resolution: 35000
Column name: XBridge C18 3.5um, 2.1x50mm, Waters
Retention time: 12.4 min
Base peak: 1002.5178
Precursor m/z: 1002.5183
Precursor type: [M+H]+
m/z	relative intensity	assigned
70.065	5	C4H8N+
74.0236	4	C2H4NO2+
74.0964	1	C4H12N+
77.0385	9	C6H5+
79.0542	78	C6H7+
80.0495	7	C5H6N+
81.0699	6	C6H9+
82.0288	6	C4H4NO+
82.0651	47	C5H8N+
83.0492	1	C5H7O+
84.0444	181	C4H6NO+
85.0285	1	C4H5O2+
85.0649	1	C5H9O+
86.0964	647	C5H12N+
89.0387	1	C7H5+
91.0542	299	C7H7+
93.0699	145	C7H9+
94.0651	11	C6H8N+
95.0491	59	C6H7O+
95.0855	25	C7H11+
96.0443	1	C5H6NO+
96.0807	15	C6H10N+
97.0761	1	C5H9N2+
98.0602	2	C5H8NO+
99.0917	44	C5H11N2+
100.0756	1	C5H10NO+
101.0709	7	C4H9N2O+
102.0463	5	C8H6+
102.0549	25	C4H8NO2+
103.0542	249	C8H7+
105.0699	282	C8H9+
107.0855	999	C8H11+
108.0808	6	C7H10N+
109.0648	29	C7H9O+
109.1011	4	C8H13+
110.06	44	C6H8NO+
110.0964	5	C7H12N+
112.0392	7	C5H6NO2+
112.0756	8	C6H10NO+
112.1121	1	C7H14N+
113.0234	10	C5H5O3+
113.071	19	C5H9N2O+
115.0542	42	C9H7+
117.0698	103	C9H9+
118.0653	2	C8H8N+
119.0491	39	C8H7O+
119.0604	6	C7H7N2+
119.0855	44	C9H11+
120.0571	2	C8H8O+
120.0808	7	C8H10N+
120.0931	2	C9H12+
121.0648	16	C8H9O+
121.0759	11	C7H9N2+
121.1011	20	C9H13+
122.0599	8	C7H8NO+
122.0963	14	C8H12N+
123.0681	1	C7H9NO+
123.0804	7	C8H11O+
123.0917	8	C7H11N2+
124.0757	48	C7H10NO+
124.112	64	C8H14N+
125.0711	9	C6H9N2O+
126.055	8	C6H8NO2+
127.0866	869	C6H11N2O+
128.0621	14	C10H8+
128.0705	27	C6H10NO2+
129.0698	28	C10H9+
130.0498	45	C5H8NO3+
130.0652	5	C9H8N+
130.0776	2	C10H10+
131.0855	82	C10H11+
131.1179	6	C6H15N2O+
132.0809	7	C9H10N+
133.0647	6	C9H9O+
133.1012	49	C10H13+
135.0804	857	C9H11O+
135.1167	735	C10H15+
136.0755	813	C8H10NO+
137.0708	2	C7H9N2O+
137.0786	1	CH9N6O2+
137.096	1	C9H13O+
138.0548	187	C7H8NO2+
139.0863	9	C7H11N2O+
140.0706	19	C7H10NO2+
141.0651	3	C4H7N5O+
141.0699	4	C11H9+
141.1019	8	C7H13N2O+
142.0777	2	C11H10+
143.0855	54	C11H11+
145.0646	6	C10H9O+
145.1012	63	C11H13+
146.06	32	C9H8NO+
146.0964	38	C10H12N+
146.109	14	C11H14+
147.0437	2	C9H7O2+
147.0804	8	C10H11O+
147.117	5	C11H15+
148.0753	2	C9H10NO+
148.1119	2	C10H14N+
149.071	44	C8H9N2O+
149.0961	5	C10H13O+
150.055	8	C8H8NO2+
150.0913	5	C9H12NO+
150.1277	8	C10H16N+
151.0865	12	C8H11N2O+
152.0706	19	C8H10NO2+
152.107	8	C9H14NO+
155.0814	459	C7H11N2O2+
156.0654	5	C7H10NO3+
156.0848	1	C2H12N4O4+
157.1011	10	C12H13+
157.1334	71	C8H17N2O+
158.0964	9	C11H12N+
158.1173	2	C8H16NO2+
159.0803	12	C11H11O+
159.1167	32	C12H15+
160.112	2	C11H14N+
161.0961	47	C11H13O+
161.1322	8	C12H17+
162.055	7	C9H8NO2+
162.0913	41	C10H12NO+
162.1276	37	C11H16N+
163.1116	403	C11H15O+
164.0704	9	C9H10NO2+
164.1069	5	C10H14NO+
165.0543	2	C9H9O3+
165.0701	2	C13H9+
165.0907	1	C10H13O2+
165.1024	1	C9H13N2O+
166.0776	2	C13H10+
167.0813	259	C8H11N2O2+
168.0654	28	C8H10NO3+
169.1335	2	C9H17N2O+
170.0811	8	C8H12NO3+
171.0805	13	C12H11O+
171.1167	19	C13H15+
171.1492	7	C9H19N2O+
172.1115	2	C12H14N+
173.0961	33	C12H13O+
174.0913	13	C11H12NO+
174.1037	8	C12H14O+
174.1278	1	C12H16N+
175.112	1	C12H15O+
176.0707	2	C10H10NO2+
176.1069	27	C11H14NO+
177.1021	6	C10H13N2O+
178.0862	7	C10H12NO2+
178.1226	8	C11H16NO+
178.1351	6	C12H18O+
180.0932	7	C14H12+
180.1379	6	C11H18NO+
181.0971	19	C9H13N2O2+
181.1017	14	C14H13+
181.1334	38	C10H17N2O+
182.0812	10	C9H12NO3+
183.1169	5	C14H15+
184.1124	1	C13H14N+
185.0917	2	C8H13N2O3+
186.0764	1	C8H12NO4+
186.0913	8	C12H12NO+
187.1117	17	C13H15O+
188.1069	14	C12H14NO+
188.1432	18	C13H18N+
189.1274	2	C13H17O+
190.0865	2	C11H12NO2+
190.1226	20	C12H16NO+
190.1587	10	C13H20N+
191.1062	2	C12H15O2+
192.0653	15	C10H10NO3+
192.1018	4	C11H14NO2+
193.0959	8	C8H11N5O+
194.1652	15	C11H20N3+
195.0762	166	C9H11N2O3+
195.1166	42	C15H15+
196.0601	39	C9H10NO4+
197.1278	11	C10H17N2O2+
198.0757	2	C9H12NO4+
198.1485	1	C11H20NO2+
200.1065	1	C13H14NO+
200.1428	6	C14H18N+
201.1274	2	C14H17O+
202.0861	19	C12H12NO2+
202.1589	2	C14H20N+
204.1016	5	C12H14NO2+
204.1384	26	C13H18NO+
206.1539	2	C13H20NO+
207.1177	9	C16H15+
208.1244	1	C16H16+
209.1294	42	C11H17N2O2+
210.1236	2	C10H16N3O2+
211.0709	9	C9H11N2O4+
213.0868	659	C9H13N2O4+
214.0709	7	C9H12NO5+
215.1071	2	H17N5O8+
215.1388	2	C10H19N2O3+
216.1384	2	C14H18NO+
218.1538	78	C14H20NO+
219.1127	58	C12H15N2O2+
220.0978	3	C12H14NO3+
220.108	9	C11H14N3O2+
221.0921	6	C11H13N2O3+
221.1322	1	C17H17+
222.1599	12	C12H20N3O+
223.1073	15	C11H15N2O3+
225.1239	1	C11H17N2O3+
226.1588	89	C16H20N+
228.1383	11	C15H18NO+
229.133	1	C14H17N2O+
230.0819	3	C13H12NO3+
232.0965	6	C13H14NO3+
232.1241	6	C18H16+
235.1078	5	C12H15N2O3+
235.1477	1	C18H19+
237.1235	16	C12H17N2O3+
237.1635	67	C18H21+
238.1196	2	C11H16N3O3+
239.0661	49	C10H11N2O5+
239.1023	9	C11H15N2O4+
242.1533	1	C16H20NO+
243.1338	35	C11H19N2O4+
244.1336	2	C15H18NO2+
245.1285	7	C14H17N2O2+
246.1486	54	C15H20NO2+
247.1076	35	C13H15N2O3+
247.148	10	C19H19+
248.0915	73	C13H14NO4+
250.1549	7	C13H20N3O2+
251.1022	5	C12H15N2O4+
254.1896	1	C18H24N+
257.1286	1	C15H17N2O2+
258.1848	15	C17H24NO+
259.1803	14	C16H23N2O+
262.1437	1	C15H20NO3+
264.1587	2	C15H22NO3+
265.118	278	C13H17N2O4+
265.1578	17	C17H19N3+
266.1132	6	C12H16N3O4+
267.0972	1	C12H15N2O5+
268.1652	9	C13H22N3O3+
269.1134	14	C12H17N2O5+
273.123	2	C15H17N2O3+
274.1437	6	C16H20NO3+
275.1023	5	C14H15N2O4+
275.1751	20	C16H23N2O2+
292.1285	5	C14H18N3O4+
292.1541	5	C16H22NO4+
293.113	32	C14H17N2O5+
319.2013	10	C18H27N2O3+
320.1606	6	C16H22N3O4+
320.2006	8	C22H26NO+
324.1182	1	C14H18N3O6+
329.1855	11	C19H25N2O3+
343.1641	4	C19H23N2O4+
352.1838	1	C15H24N6O4+
357.1808	1	C20H25N2O4+
375.1914	22	C20H27N2O5+
384.2278	11	C22H30N3O3+
397.2086	2	C18H29N4O6+
400.2231	2	C22H30N3O4+
