Mass spectrum: Microcystin-YR; LC-ESI-QFT; MS2; CE: 60; R=35000; [M-H]-
Name: Microcystin-YR
Name: (5R,8S,11R,12R,15S,18S,19S,22R)-15-[3-(diaminomethylideneamino)propyl]-8-[(4-hydroxyphenyl)methyl]-18-[(1E,3E,5S,6S)-6-methoxy-3,5-dimethyl-7-phenylhepta-1,3-dienyl]-1,5,12,19-tetramethyl-2-methylidene-3,6,9,13,16,20,25-heptaoxo-1,4,7,10,14,17,21-heptazacyclopentacosane-11,22-dicarboxylic acid
Formula: C52H72N10O13
Exact mass: 1044.52803
SMILES: O=C2N[C@@H](\C=C\C(=C\[C@H](C)[C@@H](OC)Cc1ccccc1)C)[C@@H](C(=O)N[C@@H](C(=O)O)CCC(=O)N(/C(=C)C(=O)N[C@@H](C(=O)N[C@H](C(=O)N[C@@H](C(=O)O)[C@H](C(=O)N[C@H]2CCC/N=C(\N)N)C)Cc3ccc(O)cc3)C)C)C
InChI: InChI=1S/C52H72N10O13/c1-28(25-29(2)41(75-8)27-34-13-10-9-11-14-34)16-21-37-30(3)44(65)59-39(50(71)72)22-23-42(64)62(7)33(6)47(68)56-32(5)46(67)60-40(26-35-17-19-36(63)20-18-35)49(70)61-43(51(73)74)31(4)45(66)58-38(48(69)57-37)15-12-24-55-52(53)54/h9-11,13-14,16-21,25,29-32,37-41,43,63H,6,12,15,22-24,26-27H2,1-5,7-8H3,(H,56,68)(H,57,69)(H,58,66)(H,59,65)(H,60,67)(H,61,70)(H,71,72)(H,73,74)(H4,53,54,55)/b21-16+,28-25+/t29-,30-,31+,32+,37-,38-,39+,40-,41-,43+/m0/s1
Instrument: Q Exactive Orbitrap Thermo Scientific
Instrument type: LC-ESI-QFT
Ms type: MS2
Ion mode: NEGATIVE
Ionization: ESI
Fragmentation mode: HCD
Collision energy: 60 (nominal)
Resolution: 35000
Column name: XBridge C18 3.5um, 2.1x50mm, Waters
Retention time: 10.0 min
Base peak: 1043.5209
Precursor m/z: 1043.5208
Precursor type: [M-H]-
m/z	relative intensity	assigned
72.0091	16	C2H2NO2-
72.0455	84	C3H6NO-
73.0295	36	C3H5O2-
73.0407	239	C2H5N2O-
74.0248	106	C2H4NO2-
80.0506	37	C5H6N-
81.022	3	C4H3NO-
81.0459	14	C4H5N2-
82.0173	5	C3H2N2O-
82.0299	99	C4H4NO-
83.0251	158	C3H3N2O-
83.0615	14	C4H7N2-
84.0455	137	C4H6NO-
85.0293	2	C4H5O2-
85.0407	38	C3H5N2O-
86.0247	4	C3H4NO2-
86.0612	9	C4H8NO-
87.0564	168	C3H7N2O-
88.0405	14	C3H6NO2-
91.0553	4	C7H7-
92.0506	4	C6H6N-
93.0346	81	C6H5O-
93.0458	4	C5H5N2-
94.0299	18	C5H4NO-
94.0664	3	C6H8N-
95.0252	18	C4H3N2O-
95.0377	5	C5H5NO-
95.0615	5	C5H7N2-
96.009	2	C4H2NO2-
96.033	16	C4H4N2O-
96.0455	39	C5H6NO-
97.0042	3	C3HN2O2-
97.0408	62	C4H5N2O-
97.0773	3	C5H9N2-
98.0122	24	C3H2N2O2-
98.0248	34	C4H4NO2-
98.0358	2	C3H4N3O-
98.0611	24	C5H8NO-
99.02	164	C3H3N2O2-
99.0564	317	C4H7N2O-
100.0041	4	C3H2NO3-
100.0404	23	C4H6NO2-
101.0357	10	C3H5N2O2-
101.072	31	C4H9N2O-
102.0561	12	C4H8NO2-
106.0425	9	C7H6O-
106.0661	3	C7H8N-
107.0253	2	C5H3N2O-
107.0379	2	C6H5NO-
107.0503	48	C7H7O-
107.0615	4	C6H7N2-
108.0217	9	C6H4O2-
108.0329	23	C5H4N2O-
108.0455	22	C6H6NO-
108.0818	13	C7H10N-
109.0408	999	C5H5N2O-
110.0248	528	C5H4NO2-
111.0201	49	C4H3N2O2-
111.0563	46	C5H7N2O-
112.0404	149	C5H6NO2-
112.0767	12	C6H10NO-
112.088	9	C5H10N3-
113.0357	239	C4H5N2O2-
113.072	54	C5H9N2O-
115.0515	15	C4H7N2O2-
117.0347	4	C8H5O-
119.0502	494	C8H7O-
120.0454	37	C7H6NO-
120.0817	5	C8H10N-
121.0407	5	C6H5N2O-
121.0533	11	C7H7NO-
121.0771	5	C7H9N2-
122.0248	8	C6H4NO2-
122.0486	13	C6H6N2O-
122.0612	24	C7H8NO-
122.0976	27	C8H12N-
123.0327	28	C6H5NO2-
123.0441	12	C5H5N3O-
123.0564	92	C6H7N2O-
124.028	16	C5H4N2O2-
124.0404	230	C6H6NO2-
124.0516	149	C5H6N3O-
124.0768	13	C7H10NO-
125.0356	49	C5H5N2O2-
125.0594	11	C5H7N3O-
125.072	77	C6H9N2O-
126.0564	17	C6H8NO2-
126.0673	272	C5H8N3O-
127.0513	200	C5H7N2O2-
127.0874	16	C6H11N2O-
128.0354	995	C5H6NO3-
129.0387	2	H7N3O5-
129.0669	5	C5H9N2O2-
130.0508	11	C5H8NO3-
130.0986	27	C5H12N3O-
131.0376	10	C8H5NO-
131.0867	44	C10H11-
132.0455	4	C8H6NO-
133.0534	30	C8H7NO-
134.0612	63	C8H8NO-
135.0326	5	C7H5NO2-
135.0451	5	C8H7O2-
135.0564	26	C7H7N2O-
136.0404	18	C7H6NO2-
136.0514	18	C6H6N3O-
136.0646	4	C7H8N2O-
136.0768	25	C8H10NO-
137.0355	2	C6H5N2O2-
137.0483	5	C7H7NO2-
137.0592	3	C6H7N3O-
137.072	34	C7H9N2O-
137.1083	3	C8H13N2-
138.0435	58	C6H6N2O2-
138.0559	30	C7H8NO2-
138.0672	22	C6H8N3O-
139.0513	46	C6H7N2O2-
139.0748	3	C6H9N3O-
139.0876	24	C7H11N2O-
140.0717	10	C7H10NO2-
140.083	43	C6H10N3O-
141.0669	27	C6H9N2O2-
142.0621	142	C5H8N3O2-
144.0454	45	C9H6NO-
144.0778	380	C5H10N3O2-
145.0296	2	C9H5O2-
146.061	4	C9H8NO-
147.0327	3	C8H5NO2-
147.0451	9	C9H7O2-
147.0563	2	C8H7N2O-
148.0282	2	C7H4N2O2-
148.0401	2	C8H6NO2-
148.0768	11	C9H10NO-
149.072	19	C8H9N2O-
150.0559	116	C8H8NO2-
151.0384	10	C6H5N3O2-
151.0511	10	C7H7N2O2-
151.0876	20	C8H11N2O-
152.0464	37	C6H6N3O2-
152.0717	12	C8H10NO2-
152.0828	51	C7H10N3O-
153.0668	194	C7H9N2O2-
153.1033	19	C8H13N2O-
154.0624	5	C6H8N3O2-
154.0985	49	C7H12N3O-
155.0826	10	C7H11N2O2-
156.0777	53	C6H10N3O2-
157.053	10	C10H7NO-
158.0932	5	C6H12N3O2-
160.0402	24	C9H6NO2-
160.0769	4	C10H10NO-
161.072	9	C9H9N2O-
162.0559	446	C9H8NO2-
163.0402	5	C9H7O3-
163.0877	30	C9H11N2O-
164.0591	8	C8H8N2O2-
164.0715	21	C9H10NO2-
164.0827	4	C8H10N3O-
165.0669	23	C8H9N2O2-
166.0622	12	C7H8N3O2-
166.0984	37	C8H12N3O-
167.0825	62	C8H11N2O2-
168.0414	13	C6H6N3O3-
168.0777	5	C7H10N3O2-
168.1141	46	C8H14N3O-
169.0378	8	C7H7NO4-
169.0493	44	C6H7N3O3-
169.0981	11	C8H13N2O2-
170.057	87	C6H8N3O3-
170.0933	101	C7H12N3O2-
171.0772	4	C7H11N2O3-
171.1178	10	C13H15-
172.0766	19	C11H10NO-
172.1089	3	C7H14N3O2-
174.0557	2	C10H8NO2-
177.0668	11	C9H9N2O2-
177.1031	3	C10H13N2O-
178.087	2	C10H12NO2-
178.0984	12	C9H12N3O-
179.0826	26	C9H11N2O2-
180.0663	8	C9H10NO3-
180.078	23	C8H10N3O2-
180.1142	75	C9H14N3O-
181.062	5	C8H9N2O3-
181.0982	96	C9H13N2O2-
182.0935	24	C8H12N3O2-
184.1088	15	C8H14N3O2-
186.0924	2	C12H12NO-
186.1249	3	C8H16N3O2-
192.0778	3	C9H10N3O2-
193.073	12	C8H9N4O2-
194.0929	3	C9H12N3O2-
194.1301	4	C10H16N3O-
196.109	4	C9H14N3O2-
198.089	3	C8H12N3O3-
198.1247	28	C9H16N3O2-
202.0877	3	C12H12NO2-
203.0828	4	C11H11N2O2-
205.0613	2	C10H9N2O3-
205.0985	20	C11H13N2O2-
206.0934	25	C10H12N3O2-
206.1297	2	C11H16N3O-
207.0774	13	C10H11N2O3-
207.1139	3	C11H15N2O2-
208.1093	3	C10H14N3O2-
209.1044	149	C9H13N4O2-
211.0724	3	C9H11N2O4-
211.1203	3	C9H15N4O2-
215.0827	10	C12H11N2O2-
221.0932	3	C11H13N2O3-
227.115	40	C9H15N4O3-
250.1191	3	C12H16N3O3-
