Mass spectrum: Man4GlcNAc-II; LC-ESI-QQ; MS2; CE:30V; Amide
Name: Man4GlcNAc-II
Name: Man-alpha-1-6Man-alpha-1-6(Man-alpha-1-3)Man-beta-1-5GlcNAc
Class: Natural Product; Oligosaccharide; N-linked glycan; High-mannose type
Formula: C32H55NO26
Exact mass: 869.30123
SMILES: OCC(C1O)OC(OCC(C5O)OC(C(C5O)O)OCC(C(O)2)OC(OC(C4O)C(OC(C4NC(C)=O)O)CO)C(O)C(OC(O3)C(C(C(C3CO)O)O)O)2)C(O)C(O)1
InChI: InChI=1/C32H55NO26/c1-7(37)33-13-18(42)26(10(4-36)53-28(13)50)58-32-25(49)27(59-31-24(48)20(44)15(39)9(3-35)55-31)17(41)12(57-32)6-52-30-23(47)21(45)16(40)11(56-30)5-51-29-22(46)19(43)14(38)8(2-34)54-29/h8-32,34-36,38-50H,2-6H2,1H3,(H,33,37)/t8-,9-,10-,11-,12-,13-,14-,15-,16-,17-,18-,19+,20+,21+,22+,23+,24+,25+,26-,27+,28-,29+,30+,31-,32+/m1/s1/f/h33H
Instrument: 2695 HPLC Quadro Micro API, Waters
Instrument type: LC-ESI-QQ
Ms type: MS2
Ion mode: POSITIVE
Collision energy: 30.0 V
Ionization: ESI
Column name: TSK-GEL Amide-80 2.0 mm X 250 mm (TOSOH)
Retention time: 16.510 min
Derivative form: C41H66N2O27
Derivative mass: 1018.38529
Derivative type: ABEE (p-Aminobenzoic acid ethyl ester)
Precursor m/z: 1019.30
Precursor type: [M+H]+
m/z	relative intensity
325.3	53
370.3	415
371.1	999
371.8	232
532.2	168
532.9	370
533.8	131
694.4	195
695.3	285
696.2	101
856.3	78
857.4	154
858.3	67
1018.9	66
1019.8	63
