Mass spectrum: Folic_Acid; LC-ESI-QTOF; MS2; CE:10 eV; [M+H]+
Name: Folic_Acid
Formula: C19H19N7O6
Exact mass: 441.13968
SMILES: [H]OC(=O)C([H])([H])C([H])([H])C([H])(C(=O)O[H])N([H])C(=O)c(c([H])3)c([H])c([H])c(c([H])3)N([H])C([H])([H])c(c([H])2)nc(C(=O)1)c(n2)N([H])C(N([H])[H])=N1
InChI: InChI=1S/C19H19N7O6/c20-19-25-15-14(17(30)26-19)23-11(8-22-15)7-21-10-3-1-9(2-4-10)16(29)24-12(18(31)32)5-6-13(27)28/h1-4,8,12,21H,5-7H2,(H,24,29)(H,27,28)(H,31,32)(H3,20,22,25,26,30)
Instrument: Micromass Q-TOF II
Instrument type: LC-ESI-QTOF
Ms type: MS2
Ion mode: POSITIVE
Collision energy: 10 eV
Ionization: ESI
Precursor m/z: 442.14762
Precursor type: [M+H]+
m/z	relative intensity
295.0928	999
313.1042	66
442.1466	635
