Mass spectrum: Microcystin-LF; LC-ESI-QFT; MS2; CE: 90; R=35000; [M-H]-
Name: Microcystin-LF
Name: 15-benzyl-18-[(1E,3E)-6-methoxy-3,5-dimethyl-7-phenylhepta-1,3-dienyl]-1,5,12,19-tetramethyl-2-methylidene-8-(2-methylpropyl)-3,6,9,13,16,20,25-heptaoxo-1,4,7,10,14,17,21-heptazacyclopentacosane-11,22-dicarboxylic acid
Formula: C52H71N7O12
Exact mass: 985.51607
SMILES: O=C(O)C2NC(=O)C(NC(=O)C(NC(=O)\C(=C)N(C(=O)CCC(C(=O)O)NC(=O)C(C)C(\C=C\C(=C\C(C)C(OC)Cc1ccccc1)C)NC(=O)C(NC(=O)C2C)Cc3ccccc3)C)C)CC(C)C
InChI: InChI=1S/C52H71N7O12/c1-29(2)25-40-50(66)58-44(52(69)70)33(6)46(62)56-41(27-36-17-13-11-14-18-36)49(65)54-38(22-21-30(3)26-31(4)42(71-10)28-37-19-15-12-16-20-37)32(5)45(61)55-39(51(67)68)23-24-43(60)59(9)35(8)48(64)53-34(7)47(63)57-40/h11-22,26,29,31-34,38-42,44H,8,23-25,27-28H2,1-7,9-10H3,(H,53,64)(H,54,65)(H,55,61)(H,56,62)(H,57,63)(H,58,66)(H,67,68)(H,69,70)/b22-21+,30-26+
Instrument: Q Exactive Orbitrap Thermo Scientific
Instrument type: LC-ESI-QFT
Ms type: MS2
Ion mode: NEGATIVE
Ionization: ESI
Fragmentation mode: HCD
Collision energy: 90 (nominal)
Resolution: 35000
Column name: XBridge C18 3.5um, 2.1x50mm, Waters
Retention time: 14.0 min
Base peak: 984.5099
Precursor m/z: 984.5088
Precursor type: [M-H]-
m/z	relative intensity	assigned
68.0142	6	C3H2NO-
68.0506	23	C4H6N-
70.0298	42	C3H4NO-
71.0138	13	C3H3O2-
71.025	63	C2H3N2O-
71.0503	19	C4H7O-
72.0091	54	C2H2NO2-
72.0455	197	C3H6NO-
73.0295	66	C3H5O2-
74.0248	188	C2H4NO2-
80.0506	72	C5H6N-
81.022	31	C4H3NO-
81.0345	5	C5H5O-
81.0459	37	C4H5N2-
81.071	7	C6H9-
82.0173	64	C3H2N2O-
82.0299	178	C4H4NO-
82.0662	151	C5H8N-
83.0139	4	C4H3O2-
83.0251	57	C3H3N2O-
83.0502	3	C5H7O-
83.0615	6	C4H7N2-
84.0455	322	C4H6NO-
84.0819	43	C5H10N-
85.0297	4	C4H5O2-
85.0407	27	C3H5N2O-
85.0659	6	C5H9O-
86.0249	4	C3H4NO2-
86.0612	4	C4H8NO-
87.0564	231	C3H7N2O-
88.0405	28	C3H6NO2-
91.0301	5	C5H3N2-
92.0506	17	C6H6N-
94.0299	30	C5H4NO-
94.0536	5	C5H6N2-
94.0662	36	C6H8N-
95.0251	142	C4H3N2O-
95.0376	16	C5H5NO-
96.0092	6	C4H2NO2-
96.033	37	C4H4N2O-
96.0456	48	C5H6NO-
96.0819	74	C6H10N-
97.0044	25	C3HN2O2-
97.0408	124	C4H5N2O-
98.0122	56	C3H2N2O2-
98.0247	25	C4H4NO2-
98.0612	21	C5H8NO-
99.0564	167	C4H7N2O-
101.0397	4	C8H5-
101.0721	15	C4H9N2O-
102.056	12	C4H8NO2-
106.0662	13	C7H8N-
107.0251	7	C5H3N2O-
107.0376	11	C6H5NO-
107.0615	17	C6H7N2-
108.033	116	C5H4N2O-
108.0455	47	C6H6NO-
109.017	35	C5H3NO2-
109.0408	387	C5H5N2O-
110.0248	999	C5H4NO2-
110.0357	66	C4H4N3O-
111.02	96	C4H3N2O2-
111.0281	29	H5N3O4-
111.0563	25	C5H7N2O-
112.0404	166	C5H6NO2-
112.0768	138	C6H10NO-
113.0357	103	C4H5N2O2-
113.0721	5	C5H9N2O-
114.0925	5	C6H12NO-
116.0507	150	C8H6N-
117.0345	3	C8H5O-
118.0663	180	C8H8N-
119.0695	5	C3H9N3O2-
120.0328	16	C6H4N2O-
120.0452	4	C7H6NO-
120.0819	6	C8H10N-
121.0408	24	C6H5N2O-
121.0534	14	C7H7NO-
122.0248	20	C6H4NO2-
122.0359	12	C5H4N3O-
122.0486	70	C6H6N2O-
122.0614	16	C7H8NO-
122.0976	15	C8H12N-
123.0201	53	C5H3N2O2-
123.0326	66	C6H5NO2-
123.0438	34	C5H5N3O-
123.0564	72	C6H7N2O-
124.0278	20	C5H4N2O2-
124.0404	194	C6H6NO2-
124.0515	54	C5H6N3O-
125.0356	47	C5H5N2O2-
125.0594	190	C5H7N3O-
125.0718	26	C6H9N2O-
126.056	12	C6H8NO2-
126.063	5	H8N5O3-
127.0513	257	C5H7N2O2-
128.0354	351	C5H6NO3-
129.1034	255	C6H13N2O-
130.0873	21	C6H12NO2-
130.1067	5	CH14N4O3-
132.0332	4	C7H4N2O-
133.0413	4	C7H5N2O-
134.0612	4	C8H8NO-
135.0327	54	C7H5NO2-
135.0565	15	C7H7N2O-
136.0406	7	C7H6NO2-
136.0516	12	C6H6N3O-
136.0641	5	C7H8N2O-
137.0356	15	C6H5N2O2-
137.0595	3	C6H7N3O-
137.0721	15	C7H9N2O-
138.0434	112	C6H6N2O2-
138.0559	22	C7H8NO2-
138.0799	12	C7H10N2O-
139.0877	104	C7H11N2O-
140.072	4	C7H10NO2-
140.0909	6	C2H12N4O3-
140.1079	3	C8H14NO-
143.0697	4	C5H9N3O2-
146.0612	5	C9H8NO-
147.0564	5	C8H7N2O-
148.0765	4	C9H10NO-
149.0355	4	C7H5N2O2-
149.0721	7	C8H9N2O-
150.0559	71	C8H8NO2-
150.0673	15	C7H8N3O-
151.0879	3	C8H11N2O-
153.067	24	C7H9N2O2-
153.1036	33	C8H13N2O-
155.0825	16	C7H11N2O2-
155.1189	38	C8H15N2O-
156.1221	4	CH14N7O2-
157.1346	11	C8H17N2O-
161.0719	3	C9H9N2O-
162.0557	4	C9H8NO2-
164.0826	3	C8H10N3O-
165.1032	72	C9H13N2O-
166.0989	3	C8H12N3O-
167.0827	6	C8H11N2O2-
169.0386	3	C7H7NO4-
169.1347	16	C9H17N2O-
180.1144	26	C9H14N3O-
182.1297	148	C9H16N3O-
183.114	5	C9H15N2O2-
183.1331	5	C4H17N5O3-
193.0731	19	C8H9N4O2-
208.1092	4	C10H14N3O2-
