Mass spectrum: Microcystin-LF; LC-ESI-QFT; MS2; CE: 45; R=35000; [M+H]+
Name: Microcystin-LF
Name: 15-benzyl-18-[(1E,3E)-6-methoxy-3,5-dimethyl-7-phenylhepta-1,3-dienyl]-1,5,12,19-tetramethyl-2-methylidene-8-(2-methylpropyl)-3,6,9,13,16,20,25-heptaoxo-1,4,7,10,14,17,21-heptazacyclopentacosane-11,22-dicarboxylic acid
Formula: C52H71N7O12
Exact mass: 985.51607
SMILES: O=C(O)C2NC(=O)C(NC(=O)C(NC(=O)\C(=C)N(C(=O)CCC(C(=O)O)NC(=O)C(C)C(\C=C\C(=C\C(C)C(OC)Cc1ccccc1)C)NC(=O)C(NC(=O)C2C)Cc3ccccc3)C)C)CC(C)C
InChI: InChI=1S/C52H71N7O12/c1-29(2)25-40-50(66)58-44(52(69)70)33(6)46(62)56-41(27-36-17-13-11-14-18-36)49(65)54-38(22-21-30(3)26-31(4)42(71-10)28-37-19-15-12-16-20-37)32(5)45(61)55-39(51(67)68)23-24-43(60)59(9)35(8)48(64)53-34(7)47(63)57-40/h11-22,26,29,31-34,38-42,44H,8,23-25,27-28H2,1-7,9-10H3,(H,53,64)(H,54,65)(H,55,61)(H,56,62)(H,57,63)(H,58,66)(H,67,68)(H,69,70)/b22-21+,30-26+
Instrument: Q Exactive Orbitrap Thermo Scientific
Instrument type: LC-ESI-QFT
Ms type: MS2
Ion mode: POSITIVE
Ionization: ESI
Fragmentation mode: HCD
Collision energy: 45 (nominal)
Resolution: 35000
Column name: XBridge C18 3.5um, 2.1x50mm, Waters
Retention time: 14.0 min
Base peak: 986.5229
Precursor m/z: 986.5233
Precursor type: [M+H]+
m/z	relative intensity	assigned
69.0334	21	C4H5O+
69.0698	6	C5H9+
70.0651	3	C4H8N+
74.0234	4	C2H4NO2+
74.0964	1	C4H12N+
79.0541	80	C6H7+
80.0495	5	C5H6N+
81.0571	1	C5H7N+
81.0697	6	C6H9+
82.0286	6	C4H4NO+
82.065	45	C5H8N+
83.049	1	C5H7O+
84.0443	169	C4H6NO+
85.0283	4	C4H5O2+
85.0647	1	C5H9O+
86.0963	618	C5H12N+
91.0541	264	C7H7+
92.0619	2	C7H8+
93.0697	146	C7H9+
94.065	12	C6H8N+
95.049	54	C6H7O+
95.0854	27	C7H11+
96.0441	2	C5H6NO+
96.0681	1	C5H8N2+
96.0807	13	C6H10N+
98.06	7	C5H8NO+
99.0915	46	C5H11N2+
101.0706	5	C4H9N2O+
101.1072	1	C5H13N2+
102.0462	3	C8H6+
102.0549	31	C4H8NO2+
103.0541	269	C8H7+
104.0576	12	C3H8N2O2+
105.0698	278	C8H9+
106.0648	1	C7H8N+
107.0854	999	C8H11+
108.0807	7	C7H10N+
109.0646	28	C7H9O+
109.101	4	C8H13+
110.0599	42	C6H8NO+
110.0962	6	C7H12N+
112.0391	7	C5H6NO2+
112.0755	11	C6H10NO+
112.1122	4	C7H14N+
113.0233	9	C5H5O3+
113.0708	4	C5H9N2O+
113.1069	2	C6H13N2+
114.0548	3	C5H8NO2+
115.0541	37	C9H7+
116.0618	3	C9H8+
117.0697	112	C9H9+
118.065	1	C8H8N+
118.0734	6	C4H10N2O2+
119.0605	4	C7H7N2+
119.0733	2	C8H9N+
119.0854	37	C9H11+
120.0807	785	C8H10N+
121.0646	9	C8H9O+
121.0758	11	C7H9N2+
121.1009	22	C9H13+
122.0598	9	C7H8NO+
122.0723	1	C8H10O+
122.0962	17	C8H12N+
123.0679	1	C7H9NO+
123.0803	7	C8H11O+
123.0916	9	C7H11N2+
124.0756	47	C7H10NO+
124.1119	68	C8H14N+
125.0708	8	C6H9N2O+
125.1072	2	C7H13N2+
125.1153	1	C3H15N3O2+
126.0546	7	C6H8NO2+
126.0914	1	C7H12NO+
127.0865	870	C6H11N2O+
128.062	14	C10H8+
128.0704	26	C6H10NO2+
128.0838	3	C7H12O2+
129.0696	27	C10H9+
130.0497	49	C5H8NO3+
130.065	34	C9H8N+
130.0775	4	C10H10+
131.0854	84	C10H11+
132.0807	10	C9H10N+
132.0887	4	C5H12N2O2+
133.0648	5	C9H9O+
133.1011	42	C10H13+
134.0966	5	C9H12N+
134.1044	1	C5H14N2O2+
135.0805	879	C9H11O+
135.1164	714	C10H15+
136.0756	9	C8H10NO+
136.0835	48	C2H10N5O2+
136.1116	3	C9H14N+
136.1199	46	C3H14N5O+
137.0707	4	C7H9N2O+
137.0958	4	C9H13O+
137.1323	1	C10H17+
138.0547	187	C7H8NO2+
139.058	8	H7N6O3+
139.0862	9	C7H11N2O+
140.0703	18	C7H10NO2+
141.0696	4	C11H9+
141.1018	7	C7H13N2O+
142.0776	1	C11H10+
143.0854	48	C11H11+
144.0885	1	C4H10N5O+
144.0933	2	C11H12+
145.101	69	C11H13+
146.0599	3	C9H8NO+
146.0963	64	C10H12N+
146.1088	14	C11H14+
147.0756	1	C3H9N5O2+
147.0804	4	C10H11O+
147.0915	9	C9H11N2+
147.0995	3	C3H11N6O+
147.1168	6	C11H15+
148.0756	4	C9H10NO+
148.1118	4	C10H14N+
149.0708	42	C8H9N2O+
149.0959	3	C10H13O+
150.0547	5	C8H8NO2+
150.0741	3	C3H10N4O3+
150.0911	5	C9H12NO+
150.1276	7	C10H16N+
151.0864	10	C8H11N2O+
151.0992	1	C9H13NO+
152.0705	17	C8H10NO2+
152.1068	10	C9H14NO+
153.0651	2	C7H9N2O2+
153.0897	1	C7H11N3O+
153.1019	1	C8H13N2O+
154.1224	3	C9H16NO+
155.0813	439	C7H11N2O2+
156.065	3	C7H10NO3+
156.0788	1	C8H12O3+
156.0845	19	H10N7O3+
156.0941	1	C12H12+
157.1013	11	C12H13+
157.1333	67	C8H17N2O+
158.0963	10	C11H12N+
158.1169	1	C8H16NO2+
159.0801	6	C11H11O+
159.1166	26	C12H15+
160.1119	28	C11H14N+
161.0959	51	C11H13O+
161.132	10	C12H17+
162.0912	4	C10H12NO+
162.1275	30	C11H16N+
163.1115	404	C11H15O+
164.0703	3	C9H10NO2+
164.1073	2	C10H14NO+
164.1148	28	C4H14N5O2+
165.0698	2	C13H9+
165.0906	1	C10H13O2+
165.102	25	C9H13N2O+
166.0776	3	C13H10+
166.0862	8	C9H12NO2+
166.0977	1	C8H12N3O+
166.1051	1	C2H12N7O2+
167.0811	249	C8H11N2O2+
168.0653	17	C8H10NO3+
168.0847	11	CH10N7O3+
169.0953	2	C6H11N5O+
169.1008	11	C13H13+
169.1331	4	C9H17N2O+
170.0808	5	C8H12NO3+
170.0963	1	C12H12N+
171.0802	14	C12H11O+
171.1165	19	C13H15+
171.149	6	C9H19N2O+
172.1116	4	C12H14N+
172.1186	1	C6H14N5O+
173.096	26	C12H13O+
174.091	4	C11H12NO+
174.1043	7	C12H14O+
174.1276	1	C12H16N+
175.0868	5	C10H11N2O+
175.1118	2	C12H15O+
176.0703	19	C10H10NO2+
176.107	10	C11H14NO+
177.1018	4	C10H13N2O+
177.1269	2	C12H17O+
178.0862	7	C10H12NO2+
178.1225	8	C11H16NO+
178.1346	4	C12H18O+
179.0853	5	C14H11+
180.0944	4	H14N5O6+
180.1015	1	C10H14NO2+
180.1382	7	C11H18NO+
181.1011	28	C14H13+
181.1333	35	C10H17N2O+
182.0811	7	C9H12NO3+
182.1369	1	C5H18N4O3+
183.0761	3	C8H11N2O3+
183.1166	6	C14H15+
184.112	2	C13H14N+
185.0918	6	C8H13N2O3+
185.1276	10	C7H15N5O+
186.0758	3	C8H12NO4+
186.091	19	C12H12NO+
186.1277	1	C13H16N+
187.1115	16	C13H15O+
188.1068	16	C12H14NO+
188.1431	36	C13H18N+
189.1271	5	C13H17O+
189.1467	2	C8H19N3O2+
190.1225	21	C12H16NO+
190.1589	10	C13H20N+
191.1065	2	C12H15O2+
191.1175	1	C11H15N2O+
191.1312	1	C12H17NO+
193.0972	12	C10H13N2O2+
194.1087	5	C15H14+
194.1648	15	C11H20N3+
195.076	170	C9H11N2O3+
195.1165	35	C15H15+
196.06	35	C9H10NO4+
196.0795	8	C2H10N7O4+
197.0634	3	C2H9N6O5+
197.1276	10	C8H15N5O+
198.0756	1	C9H12NO4+
198.1481	1	C11H20NO2+
200.1431	6	C14H18N+
201.1269	3	C14H17O+
202.1221	1	C13H16NO+
202.1587	2	C14H20N+
203.1174	55	C12H15N2O+
204.1016	5	C12H14NO2+
204.1212	3	C7H16N4O3+
204.1377	6	C13H18NO+
206.1539	1	C13H20NO+
207.1171	8	C16H15+
208.1242	1	C16H16+
209.129	40	C11H17N2O2+
210.1235	3	C10H16N3O2+
210.1347	3	C9H16N5O+
211.0712	13	C9H11N2O4+
212.1027	3	C9H14N3O3+
213.0867	629	C9H13N2O4+
214.0714	8	C9H12NO5+
214.0906	35	C4H14N4O6+
215.1068	2	C14H15O2+
215.1391	2	C10H19N2O3+
216.1381	4	C14H18NO+
217.1698	1	C14H21N2+
218.1536	68	C14H20NO+
219.1574	7	C9H21N3O3+
220.1076	8	C11H14N3O2+
221.0917	8	C11H13N2O3+
222.1597	11	C12H20N3O+
223.1073	16	C11H15N2O3+
223.144	1	C12H19N2O2+
225.1239	4	C11H17N2O3+
226.1586	74	C16H20N+
227.1624	8	C11H21N3O2+
228.138	10	C15H18NO+
229.1224	1	C15H17O2+
229.1332	9	C14H17N2O+
229.1444	2	C12H21O4+
231.1124	25	C13H15N2O2+
232.0965	80	C13H14NO3+
232.124	4	C18H16+
233.1001	4	C8H15N3O5+
233.1645	1	C14H21N2O+
235.1075	3	C12H15N2O3+
235.1473	3	C18H19+
236.1424	3	C17H18N+
236.1643	2	C14H22NO2+
237.1231	12	C12H17N2O3+
237.1634	55	C18H21+
238.1185	3	C11H16N3O3+
238.1669	7	C13H22N2O2+
239.0659	53	C10H11N2O5+
239.1021	10	C11H15N2O4+
240.0692	3	C3H10N7O6+
241.118	1	C11H17N2O4+
243.1335	41	C11H19N2O4+
244.1347	3	CH20N6O8+
246.1486	51	C15H20NO2+
247.1076	4	C13H15N2O3+
247.149	9	C7H23N2O7+
248.1027	1	C12H14N3O3+
249.123	285	C13H17N2O3+
250.1266	27	C8H18N4O5+
250.1541	7	C11H18N6O+
251.1024	3	C12H15N2O4+
253.1182	1	C12H17N2O4+
257.128	5	C15H17N2O2+
257.1399	1	C16H19NO2+
258.185	12	C17H24NO+
259.1073	11	C14H15N2O3+
259.1797	30	C14H21N5+
260.1836	4	C9H22N7O2+
262.1438	3	C15H20NO3+
263.2107	1	C16H27N2O+
264.0977	1	C12H14N3O4+
264.1591	2	C15H22NO3+
264.1734	4	C19H22N+
265.1583	19	C19H21O+
266.1129	7	C12H16N3O4+
267.0974	1	C12H15N2O5+
268.1649	10	C13H22N3O3+
269.113	12	C12H17N2O5+
269.1493	1	C13H21N2O4+
274.1431	6	C14H18N4O2+
276.1338	5	C14H18N3O3+
277.118	25	C14H17N2O4+
278.1219	1	C9H18N4O6+
282.1848	12	C19H24NO+
284.1235	1	C12H18N3O5+
290.1384	1	C16H20NO4+
292.1539	3	C16H22NO4+
293.1129	10	C14H17N2O5+
294.1437	5	C14H20N3O4+
296.16	1	C14H22N3O4+
302.1496	1	C16H20N3O3+
306.183	1	C18H26O4+
310.1786	3	C20H24NO2+
315.1347	1	C3H21N7O10+
316.1545	1	C18H22NO4+
319.2008	11	
320.1601	5	C16H22N3O4+
327.1704	5	C19H23N2O3+
327.2063	1	C20H27N2O2+
329.1857	10	C19H25N2O3+
330.1866	1	C11H28N3O8+
331.2012	1	C19H27N2O3+
344.1981	1	C19H26N3O3+
345.1804	4	C19H25N2O4+
347.1961	14	C19H27N2O4+
348.1967	4	C11H30N3O9+
356.2322	1	C21H30N3O2+
362.2075	3	C19H28N3O4+
375.1914	16	C20H27N2O5+
384.2278	14	C22H30N3O3+
385.2313	1	C16H35NO9+
397.2072	1	C17H33O10+
