Mass spectrum: Norfloxacin; LC-ESI-QTOF; MS2; CE: Ramp 22.0-33.0 eV; R=35000; [M+H]+
Name: Norfloxacin
Name: 1-ethyl-6-fluoro-4-oxo-7-piperazin-4-ium-1-ylquinoline-3-carboxylate
Formula: C16H18FN3O3
Exact mass: 319.1332
SMILES: CCn1cc(c(=O)c2c1cc(c(c2)F)N3CCNCC3)C(=O)O
InChI: InChI=1S/C16H18FN3O3/c1-2-19-9-11(16(22)23)15(21)10-7-12(17)14(8-13(10)19)20-5-3-18-4-6-20/h7-9,18H,2-6H2,1H3,(H,22,23)
Instrument: Bruker maXis Impact
Instrument type: LC-ESI-QTOF
Ms type: MS2
Ion mode: POSITIVE
Ionization: ESI
Fragmentation mode: CID
Collision energy: Ramp 22.0-33.0 eV
Resolution: 35000
Column name: Acclaim RSLC C18 2.2um, 2.1x100mm, Thermo
Retention time: 4.5 min
Base peak: 363.1494
Precursor m/z: 320.1405
Precursor type: [M+H]+
m/z	relative intensity	assigned
205.0763	7	C14H9N2+
219.0927	7	C12H12FN2O+
231.0558	26	C15H7N2O+
233.1084	46	C13H14FN2O+
249.0662	7	C15H9N2O2+
256.1421	6	C15H18N3O+
272.1033	5	C14H14N3O3+
274.136	5	C15H17FN3O+
276.1507	46	C15H19FN3O+
277.1537	9	C13H19N5O2+
282.1231	9	C16H16N3O2+
292.1093	6	C14H15FN3O3+
300.1353	47	C16H18N3O3+
301.1373	11	C16H19N3O3+
302.1291	86	C16H17FN3O2+
303.1296	17	C16H18FN3O2+
304.1096	7	C15H15FN3O3+
320.1414	999	C16H19FN3O3+
321.1444	191	C14H19N5O4+
322.1221	10	C15H17FN3O4+
322.1471	16	C15H19FN4O3+
