Mass spectrum: Fluometuron; LC-ESI-QFT; MS2; CE: 30; R=35000; [M-H]-
Name: Fluometuron
Name: 1,1-dimethyl-3-[3-(trifluoromethyl)phenyl]urea
Formula: C10H11F3N2O
Exact mass: 232.08235
SMILES: CN(C)C(=O)NC1=CC=CC(=C1)C(F)(F)F
InChI: InChI=1S/C10H11F3N2O/c1-15(2)9(16)14-8-5-3-4-7(6-8)10(11,12)13/h3-6H,1-2H3,(H,14,16)
Instrument: Q Exactive Plus Orbitrap Thermo Scientific
Instrument type: LC-ESI-QFT
Ms type: MS2
Ion mode: NEGATIVE
Ionization: ESI
Fragmentation mode: HCD
Collision energy: 30 (nominal)
Resolution: 35000
Column name: XBridge C18 3.5um, 2.1x50mm, Waters
Retention time: 8.0 min
Base peak: 231.0748
Precursor m/z: 231.0751
Precursor type: [M-H]-
m/z	relative intensity	assigned
154.0473	2	C8H6F2N-
160.0379	25	C7H5F3N-
166.011	6	C8H2F2NO-
186.0172	262	C8H3F3NO-
188.0325	2	C8H5F3NO-
191.062	1	C10H8FN2O-
211.0691	3	C10H9F2N2O-
231.075	999	C10H10F3N2O-
232.0784	2	C8H10F2N4O2-
