Mass spectrum: Fluometuron; LC-ESI-QFT; MS2; CE: 180; R=35000; [M+H]+
Name: Fluometuron
Name: 1,1-dimethyl-3-[3-(trifluoromethyl)phenyl]urea
Formula: C10H11F3N2O
Exact mass: 232.08235
SMILES: CN(C)C(=O)NC1=CC=CC(=C1)C(F)(F)F
InChI: InChI=1S/C10H11F3N2O/c1-15(2)9(16)14-8-5-3-4-7(6-8)10(11,12)13/h3-6H,1-2H3,(H,14,16)
Instrument: Q Exactive Plus Orbitrap Thermo Scientific
Instrument type: LC-ESI-QFT
Ms type: MS2
Ion mode: POSITIVE
Ionization: ESI
Fragmentation mode: HCD
Collision energy: 180 (nominal)
Resolution: 35000
Column name: XBridge C18 3.5um, 2.1x50mm, Waters
Retention time: 8.0 min
Base peak: 233.0892
Precursor m/z: 233.0896
Precursor type: [M+H]+
m/z	relative intensity	assigned
51.0042	83	CHF2+
51.023	23	C4H3+
53.0022	17	C3HO+
56.0131	655	C2H2NO+
57.0135	159	C3H2F+
62.0151	37	C5H2+
63.023	450	C5H3+
64.0182	41	C4H2N+
64.0308	17	C5H4+
68.9947	140	CF3+
69.0135	35	C4H2F+
71.0292	7	C4H4F+
72.0444	999	C3H6NO+
74.0151	361	C6H2+
75.0041	233	C3HF2+
75.0229	941	C6H3+
76.0181	4	C5H2N+
81.0136	28	C5H2F+
83.0291	129	C5H4F+
90.0339	47	C6H4N+
91.0418	40	C6H5N+
93.0135	30	C6H2F+
95.0104	10	C3H2F3+
95.0292	52	C6H4F+
99.0042	55	C5HF2+
99.0104	25	C7HN+
100.0182	67	C7H2N+
105.0135	5	C7H2F+
113.0198	26	C6H3F2+
113.0397	47	C6H6FO+
119.0103	32	C5H2F3+
120.0246	4	C7H3FN+
123.0353	106	C6H4FN2+
125.0199	55	C7H3F2+
132.0183	8	C6H3F3+
140.0308	5	C7H4F2N+
141.026	43	C6H3F2N2+
145.026	26	C7H4F3+
