Mass spectrum: Microcystin-LA; LC-ESI-QFT; MS2; CE: 90; R=35000; [M+H]+
Name: Microcystin-LA
Name: (5R,8S,11R,12S,15S,18S,19S,22R)-18-[(1E,3E,5S,6S)-6-methoxy-3,5-dimethyl-7-phenylhepta-1,3-dienyl]-1,5,12,15,19-pentamethyl-2-methylidene-8-(2-methylpropyl)-3,6,9,13,16,20,25-heptaoxo-1,4,7,10,14,17,21-heptazacyclopentacosane-11,22-dicarboxylic acid
Formula: C46H67N7O12
Exact mass: 909.48477
SMILES: O=C2N[C@@H](\C=C\C(=C\[C@H](C)[C@@H](OC)Cc1ccccc1)C)[C@@H](C(=O)N[C@@H](C(=O)O)CCC(=O)N(/C(=C)C(=O)N[C@@H](C(=O)N[C@H](C(=O)N[C@@H](C(=O)O)[C@@H](C(=O)N[C@H]2C)C)CC(C)C)C)C)C
InChI: InChI=1S/C46H67N7O12/c1-24(2)21-35-44(60)52-38(46(63)64)28(6)40(56)47-29(7)41(57)49-33(18-17-25(3)22-26(4)36(65-11)23-32-15-13-12-14-16-32)27(5)39(55)50-34(45(61)62)19-20-37(54)53(10)31(9)43(59)48-30(8)42(58)51-35/h12-18,22,24,26-30,33-36,38H,9,19-21,23H2,1-8,10-11H3,(H,47,56)(H,48,59)(H,49,57)(H,50,55)(H,51,58)(H,52,60)(H,61,62)(H,63,64)/b18-17+,25-22+/t26-,27-,28-,29-,30+,33-,34+,35-,36-,38+/m0/s1
Instrument: Q Exactive Orbitrap Thermo Scientific
Instrument type: LC-ESI-QFT
Ms type: MS2
Ion mode: POSITIVE
Ionization: ESI
Fragmentation mode: HCD
Collision energy: 90 (nominal)
Resolution: 35000
Column name: XBridge C18 3.5um, 2.1x50mm, Waters
Retention time: 12.2 min
Base peak: 910.4915
Precursor m/z: 910.492
Precursor type: [M+H]+
m/z	relative intensity	assigned
65.0386	82	C5H5+
67.0416	8	C4H5N+
67.0542	39	C5H7+
68.0494	14	C4H6N+
69.0335	30	C4H5O+
69.0698	17	C5H9+
70.0286	2	C3H4NO+
70.0651	12	C4H8N+
71.0126	1	C3H3O2+
72.0807	1	C4H10N+
74.0236	27	C2H4NO2+
77.0385	31	C6H5+
78.0464	4	C6H6+
79.0542	271	C6H7+
80.0494	55	C5H6N+
81.0335	5	C5H5O+
81.0447	1	C4H5N2+
81.0572	4	C5H7N+
81.0699	17	C6H9+
82.0287	28	C4H4NO+
82.0651	135	C5H8N+
83.049	3	C5H7O+
83.0602	1	C4H7N2+
83.0855	1	C6H11+
84.0443	160	C4H6NO+
84.0808	17	C5H10N+
85.0284	21	C4H5O2+
86.06	16	C4H8NO+
86.0964	113	C5H12N+
88.0392	1	C3H6NO2+
89.0385	1	C7H5+
89.0711	1	C3H9N2O+
91.0542	818	C7H7+
92.0495	1	C6H6N+
92.0619	23	C7H8+
93.0698	155	C7H9+
94.0651	38	C6H8N+
94.0732	6	C2H10N2O2+
94.0776	4	C7H10+
95.0491	325	C6H7O+
95.0855	19	C7H11+
96.0444	7	C5H6NO+
96.0525	9	CH8N2O3+
96.0682	7	C5H8N2+
96.0807	15	C6H10N+
97.076	4	C5H9N2+
98.0601	2	C5H8NO+
99.0917	70	C5H11N2+
100.0392	1	C4H6NO2+
102.0464	22	C8H6+
102.055	9	C4H8NO2+
103.0542	999	C8H7+
104.0575	37	C3H8N2O2+
104.0619	5	C8H8+
105.0447	56	C6H5N2+
105.0698	495	C8H9+
106.0524	8	C6H6N2+
106.0651	5	C7H8N+
106.0732	14	C3H10N2O2+
106.0773	2	C8H10+
107.0855	463	C8H11+
108.0681	13	C6H8N2+
108.0806	9	C7H10N+
109.0647	111	C7H9O+
110.06	30	C6H8NO+
110.0681	4	C2H10N2O3+
110.0964	6	C7H12N+
112.0391	1	C5H6NO2+
112.0758	1	C6H10NO+
112.112	1	C7H14N+
113.0233	41	C5H5O3+
115.0542	116	C9H7+
116.0576	5	C4H8N2O2+
116.062	17	C9H8+
117.0573	6	C8H7N+
117.0698	75	C9H9+
118.0651	7	C8H8N+
118.0775	1	C9H10+
119.0603	33	C7H7N2+
119.0855	35	C9H11+
120.0529	1	C3H8N2O3+
120.057	17	C8H8O+
120.0807	18	C8H10N+
120.0892	1	C4H12N2O2+
120.0932	18	C9H12+
121.0648	5	C8H9O+
121.076	80	C7H9N2+
121.101	4	C9H13+
122.0599	9	C7H8NO+
122.0797	1	C2H10N4O2+
122.0838	10	C7H10N2+
122.0965	7	C8H12N+
123.0917	10	C7H11N2+
124.0519	1	C7H8O2+
124.0757	4	C7H10NO+
124.1119	4	C8H14N+
125.0709	1	C6H9N2O+
127.0865	247	C6H11N2O+
128.062	52	C10H8+
128.0898	7	CH12N4O3+
129.0698	38	C10H9+
130.0497	5	C5H8NO3+
130.0651	13	C9H8N+
130.0776	16	C10H10+
131.0731	4	C9H9N+
131.0855	45	C10H11+
132.0807	9	C9H10N+
132.0887	1	C5H12N2O2+
133.0648	3	C9H9O+
133.101	10	C10H13+
134.0965	6	C9H12N+
135.0803	40	C9H11O+
135.1167	26	C10H15+
136.0756	1	C8H10NO+
136.0836	1	C4H12N2O3+
136.1121	1	C9H14N+
137.0958	1	C9H13O+
138.0547	8	C7H8NO2+
139.0866	7	C7H11N2O+
140.0703	1	C7H10NO2+
141.0697	12	C11H9+
142.0777	5	C11H10+
143.0731	3	C10H9N+
143.0856	8	C11H11+
144.0808	6	C10H10N+
144.0933	1	C11H12+
145.0647	7	C10H9O+
145.0887	2	C10H11N+
145.1012	9	C11H13+
146.0963	11	C10H12N+
148.112	1	C10H14N+
149.0709	32	C8H9N2O+
151.0868	3	C8H11N2O+
152.062	4	C12H8+
153.0698	5	C12H9+
154.0776	4	C12H10+
155.0601	1	C10H7N2+
155.0862	6	C12H11+
156.0654	1	C7H10NO3+
158.0965	1	C11H12N+
159.0804	3	C11H11O+
159.1166	1	C12H15+
160.1117	3	C11H14N+
163.1116	4	C11H15O+
165.0698	26	C13H9+
166.0782	7	C13H10+
167.081	41	C8H11N2O2+
168.0655	1	C8H10NO3+
168.085	1	C3H12N4O4+
168.0929	1	C13H12+
172.1118	1	C12H14N+
173.0959	2	C12H13O+
174.0909	1	C11H12NO+
178.0776	9	C14H10+
179.0854	17	C14H11+
180.0932	4	C14H12+
181.1015	3	C14H13+
184.1119	1	C13H14N+
191.0853	1	C15H11+
192.0932	3	C15H12+
193.1009	5	C15H13+
194.1088	1	C15H14+
195.0759	7	C9H11N2O3+
217.1007	1	C17H13+
