Mass spectrum: Man7GlcNAc2-I; LC-ESI-QQ; MS2; CE:40V; Amide
Name: Man7GlcNAc2-I
Name: Man-alpha-1-2Man-alpha-1-6(Man-alpha-1-3)Man-alpha-1-6(Man-alpha-1-2Man-alpha-1-3)Man-beta-1-4GlcNAc-beta-1-4GlcNAc
Class: Natural Product; Oligosaccharide; N-linked glycan; High-mannose type
Formula: C58H98N2O46
Exact mass: 1558.53907
SMILES: O(C(O7)C(O)C(C(C7COC(C8OC(O9)C(O)C(C(O)C9CO)O)OC(C(C(O)8)O)CO)O)OC(C6O)OC(C(C6O)O)CO)CC(C3O)OC(C(C(OC(O5)C(C(C(O)C5CO)O)OC(O4)C(O)C(O)C(O)C(CO)4)3)O)OC(C(CO)1)C(C(NC(C)=O)C(OC(C2O)C(OC(C2NC(C)=O)O)CO)O1)O
InChI: InChI=1S/C58H98N2O46/c1-12(68)59-23-32(77)44(19(8-66)92-50(23)89)101-51-24(60-13(2)69)33(78)45(20(9-67)98-51)102-56-43(88)47(104-58-49(38(83)29(74)18(7-65)97-58)106-55-41(86)36(81)27(72)16(5-63)95-55)31(76)22(100-56)10-90-52-42(87)46(103-53-39(84)34(79)25(70)14(3-61)93-53)30(75)21(99-52)11-91-57-48(37(82)28(73)17(6-64)96-57)105-54-40(85)35(80)26(71)15(4-62)94-54/h14-58,61-67,70-89H,3-11H2,1-2H3,(H,59,68)(H,60,69)/t14-,15-,16-,17-,18-,19-,20-,21-,22-,23-,24-,25-,26-,27-,28-,29-,30-,31-,32-,33-,34+,35+,36+,37+,38+,39+,40+,41+,42+,43+,44-,45-,46+,47+,48+,49+,50-,51+,52+,53-,54-,55-,56+,57+,58-/m1/s1
Instrument: 2695 HPLC Quadro Micro API, Waters
Instrument type: LC-ESI-QQ
Ms type: MS2
Ion mode: POSITIVE
Collision energy: 40.0 V
Ionization: ESI
Column name: TSK-GEL Amide-80 2.0 mm X 250 mm (TOSOH)
Retention time: 35.400 min
Derivative form: C67H109N3O47
Derivative mass: 1707.62314
Derivative type: ABEE (p-Aminobenzoic acid ethyl ester)
Precursor m/z: 1708.00
Precursor type: [M+H]+
m/z	relative intensity
324.6	568
325.2	66
365.1	217
366.1	910
370.4	400
371.1	569
372.0	117
486.3	163
527.4	565
528.2	65
556.0	66
573.1	141
573.9	640
671.7	52
689.3	278
735.1	119
736.1	139
736.9	89
851.0	139
851.9	168
852.5	70
896.9	60
1012.5	76
1013.5	272
1014.4	160
1015.9	81
1058.8	77
1059.8	153
1174.3	108
1175.4	207
1177.1	66
1216.7	53
1220.8	93
1221.7	116
1335.3	57
1336.1	372
1337.1	312
1337.8	999
1338.5	53
1339.2	269
1384.2	136
1482.1	93
1544.1	53
1544.8	363
1545.7	329
1546.5	147
1705.6	251
1706.5	91
1707.4	411
1708.2	93
