Mass spectrum: Man5GlcNAc-IV; LC-ESI-QQ; MS2; CE:30V; Amide
Name: Man5GlcNAc-IV
Name: Man-alpha-1-3Man-alpha-1-6(Man-alpha-1-2Man-alpha-1-3)Man-beta-1-4GlcNAc
Class: Natural Product; Oligosaccharide; N-linked glycan; High-mannose type
Formula: C38H65NO31
Exact mass: 1031.35405
SMILES: C(C2OC(C4O)C(C(OC4COC(O5)C(O)C(OC(O6)C(O)C(O)C(C6CO)O)C(O)C(CO)5)OC(C(CO)3)C(C(C(O)O3)NC(C)=O)O)O)(C(C(C(O2)CO)O)O)OC(O1)C(O)C(O)C(O)C(CO)1
InChI: InChI=1/C38H65NO31/c1-8(45)39-15-21(51)29(13(6-44)61-33(15)59)67-37-28(58)31(69-38-32(24(54)18(48)11(4-42)65-38)70-36-26(56)23(53)17(47)10(3-41)64-36)20(50)14(66-37)7-60-34-27(57)30(19(49)12(5-43)62-34)68-35-25(55)22(52)16(46)9(2-40)63-35/h9-38,40-44,46-59H,2-7H2,1H3,(H,39,45)/t9-,10-,11-,12-,13-,14-,15-,16-,17-,18-,19-,20-,21-,22+,23+,24+,25+,26+,27+,28+,29-,30+,31+,32+,33-,34+,35-,36-,37+,38-/m1/s1/f/h39H
Instrument: 2695 HPLC Quadro Micro API, Waters
Instrument type: LC-ESI-QQ
Ms type: MS2
Ion mode: POSITIVE
Collision energy: 30.0 V
Ionization: ESI
Column name: TSK-GEL Amide-80 2.0 mm X 250 mm (TOSOH)
Retention time: 20.695 min
Derivative form: C47H76N2O32
Derivative mass: 1180.43812
Derivative type: ABEE (p-Aminobenzoic acid ethyl ester)
Precursor m/z: 1181.02
Precursor type: [M+H]+
m/z	relative intensity
370.3	189
370.9	999
371.7	368
372.4	89
532.3	277
533.1	703
533.9	117
648.3	51
694.3	182
695.3	314
696.3	54
856.3	79
857.1	161
1018.1	107
1019.0	299
1019.9	144
1179.7	144
1180.7	215
1181.5	294
1182.4	121
