Mass spectrum: Microcystin-LF; LC-ESI-QFT; MS2; CE: 60; R=35000; [M-H]-
Name: Microcystin-LF
Name: 15-benzyl-18-[(1E,3E)-6-methoxy-3,5-dimethyl-7-phenylhepta-1,3-dienyl]-1,5,12,19-tetramethyl-2-methylidene-8-(2-methylpropyl)-3,6,9,13,16,20,25-heptaoxo-1,4,7,10,14,17,21-heptazacyclopentacosane-11,22-dicarboxylic acid
Formula: C52H71N7O12
Exact mass: 985.51607
SMILES: O=C(O)C2NC(=O)C(NC(=O)C(NC(=O)\C(=C)N(C(=O)CCC(C(=O)O)NC(=O)C(C)C(\C=C\C(=C\C(C)C(OC)Cc1ccccc1)C)NC(=O)C(NC(=O)C2C)Cc3ccccc3)C)C)CC(C)C
InChI: InChI=1S/C52H71N7O12/c1-29(2)25-40-50(66)58-44(52(69)70)33(6)46(62)56-41(27-36-17-13-11-14-18-36)49(65)54-38(22-21-30(3)26-31(4)42(71-10)28-37-19-15-12-16-20-37)32(5)45(61)55-39(51(67)68)23-24-43(60)59(9)35(8)48(64)53-34(7)47(63)57-40/h11-22,26,29,31-34,38-42,44H,8,23-25,27-28H2,1-7,9-10H3,(H,53,64)(H,54,65)(H,55,61)(H,56,62)(H,57,63)(H,58,66)(H,67,68)(H,69,70)/b22-21+,30-26+
Instrument: Q Exactive Orbitrap Thermo Scientific
Instrument type: LC-ESI-QFT
Ms type: MS2
Ion mode: NEGATIVE
Ionization: ESI
Fragmentation mode: HCD
Collision energy: 60 (nominal)
Resolution: 35000
Column name: XBridge C18 3.5um, 2.1x50mm, Waters
Retention time: 14.0 min
Base peak: 984.5099
Precursor m/z: 984.5088
Precursor type: [M-H]-
m/z	relative intensity	assigned
68.0507	4	C4H6N-
70.0298	17	C3H4NO-
71.0139	5	C3H3O2-
71.0251	21	C2H3N2O-
71.0502	4	C4H7O-
72.0091	17	C2H2NO2-
72.0455	98	C3H6NO-
73.0295	38	C3H5O2-
74.0247	105	C2H4NO2-
80.0506	20	C5H6N-
81.0221	8	C4H3NO-
81.0346	1	C5H5O-
81.0459	8	C4H5N2-
81.071	2	C6H9-
82.0172	14	C3H2N2O-
82.0298	86	C4H4NO-
82.0662	73	C5H8N-
83.025	2	C3H3N2O-
83.0501	2	C5H7O-
83.0615	4	C4H7N2-
84.0455	165	C4H6NO-
84.0819	18	C5H10N-
85.0295	3	C4H5O2-
85.0407	19	C3H5N2O-
85.0659	5	C5H9O-
86.0247	6	C3H4NO2-
86.0612	6	C4H8NO-
87.0564	130	C3H7N2O-
88.0404	22	C3H6NO2-
91.0553	12	C7H7-
92.0506	6	C6H6N-
93.0459	1	C5H5N2-
94.0298	14	C5H4NO-
94.0536	1	C5H6N2-
94.0662	14	C6H8N-
95.0251	44	C4H3N2O-
95.0377	9	C5H5NO-
96.009	2	C4H2NO2-
96.0329	9	C4H4N2O-
96.0455	25	C5H6NO-
96.0819	22	C6H10N-
97.0043	9	C3HN2O2-
97.0407	42	C4H5N2O-
97.0771	2	C5H9N2-
98.0122	21	C3H2N2O2-
98.0247	27	C4H4NO2-
98.0612	19	C5H8NO-
99.0564	295	C4H7N2O-
100.0041	9	C3H2NO3-
100.0404	21	C4H6NO2-
100.0768	1	C5H10NO-
101.0721	21	C4H9N2O-
102.0561	20	C4H8NO2-
106.0662	5	C7H8N-
107.0251	2	C5H3N2O-
107.0377	1	C6H5NO-
107.0616	12	C6H7N2-
108.0215	6	C6H4O2-
108.033	32	C5H4N2O-
108.0455	21	C6H6NO-
108.0819	5	C7H10N-
109.017	18	C5H3NO2-
109.0408	73	C5H5N2O-
109.0771	21	C6H9N2-
110.0248	999	C5H4NO2-
111.02	49	C4H3N2O2-
111.0281	29	H5N3O4-
111.0324	7	C5H5NO2-
111.0564	23	C5H7N2O-
112.0404	151	C5H6NO2-
112.0768	80	C6H10NO-
113.0357	86	C4H5N2O2-
113.0721	6	C5H9N2O-
114.0925	10	C6H12NO-
116.0506	39	C8H6N-
117.0346	6	C8H5O-
117.071	1	C9H9-
118.0662	56	C8H8N-
119.05	1	C8H7O-
120.0328	2	C6H4N2O-
120.0455	2	C7H6NO-
120.0817	10	C8H10N-
121.0406	7	C6H5N2O-
121.0535	10	C7H7NO-
122.025	10	C6H4NO2-
122.0486	50	C6H6N2O-
122.0612	23	C7H8NO-
122.0976	23	C8H12N-
123.0201	7	C5H3N2O2-
123.0326	44	C6H5NO2-
123.044	13	C5H5N3O-
123.0564	75	C6H7N2O-
124.0403	231	C6H6NO2-
125.0356	38	C5H5N2O2-
125.0438	8	CH7N3O4-
125.0595	49	C5H7N3O-
125.072	48	C6H9N2O-
126.0561	13	C6H8NO2-
126.0925	2	C7H12NO-
127.0514	199	C5H7N2O2-
127.0878	25	C6H11N2O-
128.0354	988	C5H6NO3-
129.0387	25	H7N3O5-
129.1034	491	C6H13N2O-
130.051	7	C5H8NO3-
130.0873	36	C6H12NO2-
130.1066	20	CH14N4O3-
131.0865	28	C10H11-
133.0409	1	C7H5N2O-
135.0326	9	C7H5NO2-
135.0563	9	C7H7N2O-
136.0405	10	C7H6NO2-
136.0516	5	C6H6N3O-
136.0642	6	C7H8N2O-
136.0767	7	C8H10NO-
136.1131	23	C9H14N-
137.0354	2	C6H5N2O2-
137.0482	4	C7H7NO2-
137.0595	8	C6H7N3O-
137.072	18	C7H9N2O-
137.1085	3	C8H13N2-
138.0435	73	C6H6N2O2-
138.0558	19	C7H8NO2-
138.0799	5	C7H10N2O-
138.0925	7	C8H12NO-
139.0876	237	C7H11N2O-
140.0718	15	C7H10NO2-
140.091	11	C2H12N4O3-
140.108	6	C8H14NO-
141.0668	13	C6H9N2O2-
141.1033	2	C7H13N2O-
142.0511	3	C6H8NO3-
143.07	5	C5H9N3O2-
146.0611	28	C9H8NO-
147.0565	2	C8H7N2O-
148.0279	5	C7H4N2O2-
148.0403	2	C8H6NO2-
148.0768	5	C9H10NO-
149.0356	2	C7H5N2O2-
149.0719	17	C8H9N2O-
150.0308	6	C6H4N3O2-
150.056	88	C8H8NO2-
150.0668	7	C7H8N3O-
151.0509	5	C7H7N2O2-
151.0591	2	C3H9N3O4-
151.0749	1	C7H9N3O-
151.0876	9	C8H11N2O-
152.059	1	C7H8N2O2-
152.0715	2	C8H10NO2-
152.0828	21	C7H10N3O-
152.1082	1	C9H14NO-
153.0668	142	C7H9N2O2-
153.1033	50	C8H13N2O-
154.0698	2	H8N7O3-
154.0749	2	C7H10N2O2-
154.0982	9	C7H12N3O-
155.0825	100	C7H11N2O2-
155.1189	56	C8H15N2O-
156.0862	2	C2H12N4O4-
156.1219	2	CH14N7O2-
157.0978	1	C7H13N2O2-
157.1344	14	C8H17N2O-
158.0975	10	C11H12N-
159.0813	8	C11H11O-
160.0768	1	C10H10NO-
161.0722	1	C9H9N2O-
162.0561	1	C9H8NO2-
163.0876	2	C9H11N2O-
164.0592	2	C8H8N2O2-
164.0716	1	C9H10NO2-
164.0827	6	C8H10N3O-
165.067	19	C8H9N2O2-
165.1031	303	C9H13N2O-
166.0871	7	C9H12NO2-
166.0986	9	C8H12N3O-
166.1067	11	C4H14N4O3-
167.0824	50	C8H11N2O2-
167.1187	9	C9H15N2O-
168.1027	1	C9H14NO2-
169.0377	3	C7H7NO4-
169.1346	19	C9H17N2O-
170.0931	31	C7H12N3O2-
171.0769	1	C7H11N2O3-
171.1182	2	C13H15-
173.0719	2	C10H9N2O-
175.0871	2	C10H11N2O-
177.067	2	C9H9N2O2-
177.1029	4	C10H13N2O-
179.1188	7	C10H15N2O-
180.1142	187	C9H14N3O-
181.0617	1	C8H9N2O3-
181.0982	13	C9H13N2O2-
181.1176	11	C4H15N5O3-
182.1296	509	C9H16N3O-
183.1136	44	C9H15N2O2-
183.133	27	C4H17N5O3-
186.0922	7	C12H12NO-
189.067	7	C10H9N2O2-
192.1148	1	C10H14N3O-
193.0729	12	C8H9N4O2-
194.1296	5	C10H16N3O-
195.114	5	C10H15N2O2-
196.1452	7	C10H18N3O-
197.0606	3	C13H9O2-
198.1248	16	C9H16N3O2-
199.0872	1	C12H11N2O-
200.1405	82	C9H18N3O2-
201.1032	7	C12H13N2O-
201.1438	4	C4H19N5O4-
207.1014	5	C10H13N3O2-
208.0981	1	C11H14NO3-
208.109	29	C10H14N3O2-
211.0732	1	C9H11N2O4-
212.1409	1	C10H18N3O2-
213.1035	2	C13H13N2O-
222.125	1	C11H16N3O2-
