Mass spectrum: GlcNAcMan3GlcNAc2-I; LC-ESI-QQ; MS2; CE:20V; Amide
Name: GlcNAcMan3GlcNAc2-I
Name: GlcNAc-beta-1-2Man-alpha-1-6(Man-alpha-1-3)Man-beta-1-4GlcNAc-beta-1-4GlcNAc
Class: Natural Product; Oligosaccharide; N-linked glycan; Complex type
Formula: C42H71N3O31
Exact mass: 1113.40715
SMILES: C(C6O)(C(OC(C6NC(C)=O)OC(C5O)C(OC(C5NC(C)=O)O)CO)CO)OC(O2)C(C(C(C(COC(C3OC(O4)C(NC(C)=O)C(C(C4CO)O)O)OC(C(C(O)3)O)CO)2)O)OC(C1O)OC(C(C1O)O)CO)O
InChI: InChI=1S/C42H71N3O31/c1-10(51)43-19-27(59)33(16(7-49)67-37(19)65)73-39-21(45-12(3)53)28(60)34(17(8-50)71-39)74-41-32(64)35(75-40-31(63)29(61)23(55)14(5-47)69-40)25(57)18(72-41)9-66-42-36(30(62)24(56)15(6-48)70-42)76-38-20(44-11(2)52)26(58)22(54)13(4-46)68-38/h13-42,46-50,54-65H,4-9H2,1-3H3,(H,43,51)(H,44,52)(H,45,53)/t13-,14-,15-,16-,17-,18-,19-,20-,21-,22-,23-,24-,25-,26-,27-,28-,29+,30+,31+,32+,33-,34-,35+,36+,37-,38+,39+,40-,41+,42+/m1/s1
Instrument: 2695 HPLC Quadro Micro API, Waters
Instrument type: LC-ESI-QQ
Ms type: MS2
Ion mode: POSITIVE
Collision energy: 20.0 V
Ionization: ESI
Column name: TSK-GEL Amide-80 2.0 mm X 250 mm (TOSOH)
Retention time: 18.243 min
Derivative form: C51H82N4O32
Derivative mass: 1262.49122
Derivative type: ABEE (p-Aminobenzoic acid ethyl ester)
Precursor m/z: 1264.00
Precursor type: [M+H]+
m/z	relative intensity
365.5	40
372.4	22
528.0	31
573.0	22
688.9	57
689.7	88
690.6	56
852.0	21
891.1	37
891.7	125
892.9	72
896.5	25
898.2	67
1057.9	27
1058.7	200
1059.7	230
1060.3	55
1061.2	187
1083.6	22
1100.6	25
1261.0	380
1261.8	997
1262.7	999
1263.7	805
1264.4	79
