Mass spectrum: Microcystin-LY; LC-ESI-QFT; MS2; CE: 90; R=35000; [M-H]-
Name: Microcystin-LY
Name: 15-[(4-hydroxyphenyl)methyl]-18-[(1Z,3E)-6-methoxy-3,5-dimethyl-7-phenylhepta-1,3-dienyl]-1,5,12,19-tetramethyl-2-methylidene-8-(2-methylpropyl)-3,6,9,13,16,20,25-heptaoxo-1,4,7,10,14,17,21-heptazacyclopentacosane-11,22-dicarboxylic acid
Formula: C52H71N7O13
Exact mass: 1001.51099
SMILES: O=C(O)C2NC(=O)C(NC(=O)C(NC(=O)\C(=C)N(C(=O)CCC(C(=O)O)NC(=O)C(C)C(/C=C\C(=C\C(C)C(OC)Cc1ccccc1)C)NC(=O)C(NC(=O)C2C)Cc3ccc(O)cc3)C)C)CC(C)C
InChI: InChI=1S/C52H71N7O13/c1-28(2)24-40-50(67)58-44(52(70)71)32(6)46(63)56-41(26-36-17-19-37(60)20-18-36)49(66)54-38(21-16-29(3)25-30(4)42(72-10)27-35-14-12-11-13-15-35)31(5)45(62)55-39(51(68)69)22-23-43(61)59(9)34(8)48(65)53-33(7)47(64)57-40/h11-21,25,28,30-33,38-42,44,60H,8,22-24,26-27H2,1-7,9-10H3,(H,53,65)(H,54,66)(H,55,62)(H,56,63)(H,57,64)(H,58,67)(H,68,69)(H,70,71)/b21-16-,29-25+
Instrument: Q Exactive Orbitrap Thermo Scientific
Instrument type: LC-ESI-QFT
Ms type: MS2
Ion mode: NEGATIVE
Ionization: ESI
Fragmentation mode: HCD
Collision energy: 90 (nominal)
Resolution: 35000
Column name: XBridge C18 3.5um, 2.1x50mm, Waters
Retention time: 12.5 min
Base peak: 1000.5046
Precursor m/z: 1000.5037
Precursor type: [M-H]-
m/z	relative intensity	assigned
70.0299	45	C3H4NO-
71.0251	58	C2H3N2O-
71.0503	30	C4H7O-
72.0091	51	C2H2NO2-
72.0455	201	C3H6NO-
73.0295	77	C3H5O2-
73.0408	65	C2H5N2O-
74.0248	257	C2H4NO2-
80.0506	88	C5H6N-
81.022	34	C4H3NO-
81.0457	38	C4H5N2-
82.0173	76	C3H2N2O-
82.0298	208	C4H4NO-
82.0662	195	C5H8N-
83.0251	85	C3H3N2O-
83.0503	7	C5H7O-
84.0455	361	C4H6NO-
84.082	68	C5H10N-
85.0297	8	C4H5O2-
85.0407	49	C3H5N2O-
86.0248	8	C3H4NO2-
86.0612	10	C4H8NO-
87.0564	277	C3H7N2O-
88.0404	40	C3H6NO2-
91.0553	29	C7H7-
92.0506	11	C6H6N-
93.0346	212	C6H5O-
93.0458	13	C5H5N2-
94.0299	49	C5H4NO-
94.0663	60	C6H8N-
95.0251	123	C4H3N2O-
95.0377	13	C5H5NO-
96.033	52	C4H4N2O-
96.0454	121	C5H6NO-
96.082	67	C6H10N-
97.0044	26	C3HN2O2-
97.0407	199	C4H5N2O-
98.0122	72	C3H2N2O2-
98.0248	38	C4H4NO2-
98.0612	10	C5H8NO-
99.02	33	C3H3N2O2-
99.0564	216	C4H7N2O-
100.0401	7	C4H6NO2-
101.0722	13	C4H9N2O-
102.0562	10	C4H8NO2-
106.0663	30	C7H8N-
107.0252	9	C5H3N2O-
107.0377	9	C6H5NO-
107.0501	20	C7H7O-
107.0615	33	C6H7N2-
108.0217	49	C6H4O2-
108.0329	144	C5H4N2O-
108.0455	43	C6H6NO-
109.0169	131	C5H3NO2-
109.0408	410	C5H5N2O-
110.0248	905	C5H4NO2-
110.036	94	C4H4N3O-
111.0201	120	C4H3N2O2-
111.0325	11	C5H5NO2-
111.0564	74	C5H7N2O-
112.0405	198	C5H6NO2-
112.0768	147	C6H10NO-
113.0357	120	C4H5N2O2-
113.0722	11	C5H9N2O-
117.0346	397	C8H5O-
118.0297	14	C7H4NO-
119.0502	999	C8H7O-
120.0454	43	C7H6NO-
121.0294	14	C7H5O2-
121.0407	43	C6H5N2O-
121.0534	10	C7H7NO-
122.0246	9	C6H4NO2-
122.0362	9	C5H4N3O-
122.0486	64	C6H6N2O-
122.0612	13	C7H8NO-
122.0976	30	C8H12N-
123.02	37	C5H3N2O2-
123.0327	101	C6H5NO2-
123.0441	52	C5H5N3O-
123.0564	92	C6H7N2O-
124.0279	28	C5H4N2O2-
124.0404	323	C6H6NO2-
124.0515	35	C5H6N3O-
125.0356	37	C5H5N2O2-
125.0594	250	C5H7N3O-
125.0721	39	C6H9N2O-
126.056	9	C6H8NO2-
127.0513	179	C5H7N2O2-
127.0875	9	C6H11N2O-
128.0354	386	C5H6NO3-
129.1034	312	C6H13N2O-
130.087	13	C6H12NO2-
131.0376	67	C8H5NO-
131.0501	6	C9H7O-
132.0455	16	C8H6NO-
133.0406	10	C7H5N2O-
133.0534	129	C8H7NO-
134.0613	72	C8H8NO-
135.0326	65	C7H5NO2-
135.0563	16	C7H7N2O-
136.0403	12	C7H6NO2-
136.0515	14	C6H6N3O-
136.0641	10	C7H8N2O-
136.077	7	C8H10NO-
137.048	8	C7H7NO2-
137.0593	6	C6H7N3O-
137.0719	12	C7H9N2O-
138.0434	128	C6H6N2O2-
138.0559	14	C7H8NO2-
138.0801	11	C7H10N2O-
139.0514	9	C6H7N2O2-
139.0877	132	C7H11N2O-
143.05	7	C10H7O-
144.0454	138	C9H6NO-
145.0295	95	C9H5O2-
148.0764	9	C9H10NO-
149.0719	15	C8H9N2O-
150.0561	103	C8H8NO2-
150.0672	11	C7H8N3O-
153.067	29	C7H9N2O2-
153.1032	56	C8H13N2O-
154.0987	7	C7H12N3O-
155.0826	27	C7H11N2O2-
155.1189	50	C8H15N2O-
157.1343	7	C8H17N2O-
160.0402	44	C9H6NO2-
162.0559	16	C9H8NO2-
165.1032	83	C9H13N2O-
167.0825	11	C8H11N2O2-
170.0607	12	C11H8NO-
180.1143	33	C9H14N3O-
182.1297	185	C9H16N3O-
193.073	25	C8H9N4O2-
