Mass spectrum: Curcumin; LC-ESI-ITTOF; MS2; [M-H]-
Name: Curcumin
Name: (1E,6E)-1,7-Bis(4-hydroxy-3-methoxyphenyl)-1,6-heptadiene-3,5-dione
Name: (E,E)-1,7-Bis(4-hydroxy-3-methoxyphenyl)-1,6-heptadiene-3,5-dione
Name: (E)-1,7-Bis(4-hydroxy-3-methoxyphenyl)-1,6-heptadiene-3,5-dione
Name: Curcuma
Name: Curcumin I
Name: Curcumin W
Name: Curcumine
Name: Diferuloylmethane
Name: Haidr
Name: Halad
Name: Haldar
Name: Halud
Name: Indian Saffron
Name: Jianghuangsu
Name: Kacha Haldi
Name: Merita Earth
Name: Souchet
Name: Terra Merita
Name: Turmeric
Name: Ukon
Name: trans,trans-Curcumin
Class: Natural Product; diarylheptanoid
Formula: C21H20O6
Exact mass: 368.12599
SMILES: COc(c1)c(O)ccc(C=CC(=O)CC(=O)C=Cc(c2)cc(OC)c(O)c2)1
InChI: InChI=1S/C21H20O6/c1-26-20-11-14(5-9-18(20)24)3-7-16(22)13-17(23)8-4-15-6-10-19(25)21(12-15)27-2/h3-12,24-25H,13H2,1-2H3/b7-3+,8-4+
Instrument: LCMS-IT-TOF
Instrument type: LC-ESI-ITTOF
Ms type: MS2
Ion mode: NEGATIVE
Column name: Waters Atlantis T3 (2.1 x 150 mm, 5 um)
Retention time: 22.077033 min
Base peak: 173.062000
Precursor m/z: 367.406100
m/z	relative intensity
130.040200	36
132.020100	27
133.026700	12
133.903800	6
134.037200	161
135.040400	48
149.066100	181
149.312500	6
150.065000	15
158.043500	689
158.152200	14
158.261000	16
158.430300	10
159.035600	96
160.018700	159
161.017000	52
173.062000	999
173.289600	24
173.454100	14
174.062100	144
175.039700	287
176.045500	27
193.050600	28
201.022000	50
202.031400	155
203.029700	17
217.051900	592
217.306800	14
217.533500	6
218.058200	75
219.052700	6
241.039700	8
256.066600	20
