Mass spectrum: Man5GlcNAc-I; LC-ESI-QQ; MS2; CE:30V; Amide
Name: Man5GlcNAc-I
Name: Man-alpha-1-6(Man-alpha-1-3)Man-alpha-1-6(Man-alpha-1-3)Man-beta-1-4GlcNAc
Class: Natural Product; Oligosaccharide; N-linked glycan; High-mannose type
Formula: C38H65NO31
Exact mass: 1031.35405
SMILES: OC(C1OCC(O2)C(O)C(OC(O6)C(O)C(C(C6CO)O)O)C(O)C2OCC(O3)C(C(OC(O5)C(O)C(C(O)C(CO)5)O)C(C3OC(C(O)4)C(CO)OC(O)C4NC(C)=O)O)O)C(C(O)C(O1)CO)O
InChI: InChI=1/C38H65NO31/c1-8(44)39-15-21(50)30(12(5-43)62-33(15)59)68-38-29(58)32(70-37-27(56)24(53)18(47)11(4-42)65-37)20(49)14(67-38)7-61-35-28(57)31(69-36-26(55)23(52)17(46)10(3-41)64-36)19(48)13(66-35)6-60-34-25(54)22(51)16(45)9(2-40)63-34/h9-38,40-43,45-59H,2-7H2,1H3,(H,39,44)/t9-,10-,11-,12-,13-,14-,15-,16-,17-,18-,19-,20-,21-,22+,23+,24+,25+,26+,27+,28+,29+,30-,31+,32+,33-,34+,35+,36-,37-,38+/m1/s1/f/h39H
Instrument: 2695 HPLC Quadro Micro API, Waters
Instrument type: LC-ESI-QQ
Ms type: MS2
Ion mode: POSITIVE
Collision energy: 30.0 V
Ionization: ESI
Column name: TSK-GEL Amide-80 2.0 mm X 250 mm (TOSOH)
Retention time: 22.843 min
Derivative form: C47H76N2O32
Derivative mass: 1180.43812
Derivative type: ABEE (p-Aminobenzoic acid ethyl ester)
Precursor m/z: 1181.02
Precursor type: [M+H]+
m/z	relative intensity
325.2	418
370.4	334
371.1	957
371.8	245
399.5	169
533.3	293
582.2	300
694.2	583
695.5	381
767.0	213
855.8	157
856.5	438
857.7	214
1019.1	327
1020.1	157
1179.6	397
1180.9	330
1181.7	999
1182.7	319
