Mass spectrum: Microcystin-LA; LC-ESI-QFT; MS2; CE: 30; R=35000; [M+H]+
Name: Microcystin-LA
Name: (5R,8S,11R,12S,15S,18S,19S,22R)-18-[(1E,3E,5S,6S)-6-methoxy-3,5-dimethyl-7-phenylhepta-1,3-dienyl]-1,5,12,15,19-pentamethyl-2-methylidene-8-(2-methylpropyl)-3,6,9,13,16,20,25-heptaoxo-1,4,7,10,14,17,21-heptazacyclopentacosane-11,22-dicarboxylic acid
Formula: C46H67N7O12
Exact mass: 909.48477
SMILES: O=C2N[C@@H](\C=C\C(=C\[C@H](C)[C@@H](OC)Cc1ccccc1)C)[C@@H](C(=O)N[C@@H](C(=O)O)CCC(=O)N(/C(=C)C(=O)N[C@@H](C(=O)N[C@H](C(=O)N[C@@H](C(=O)O)[C@@H](C(=O)N[C@H]2C)C)CC(C)C)C)C)C
InChI: InChI=1S/C46H67N7O12/c1-24(2)21-35-44(60)52-38(46(63)64)28(6)40(56)47-29(7)41(57)49-33(18-17-25(3)22-26(4)36(65-11)23-32-15-13-12-14-16-32)27(5)39(55)50-34(45(61)62)19-20-37(54)53(10)31(9)43(59)48-30(8)42(58)51-35/h12-18,22,24,26-30,33-36,38H,9,19-21,23H2,1-8,10-11H3,(H,47,56)(H,48,59)(H,49,57)(H,50,55)(H,51,58)(H,52,60)(H,61,62)(H,63,64)/b18-17+,25-22+/t26-,27-,28-,29-,30+,33-,34+,35-,36-,38+/m0/s1
Instrument: Q Exactive Orbitrap Thermo Scientific
Instrument type: LC-ESI-QFT
Ms type: MS2
Ion mode: POSITIVE
Ionization: ESI
Fragmentation mode: HCD
Collision energy: 30 (nominal)
Resolution: 35000
Column name: XBridge C18 3.5um, 2.1x50mm, Waters
Retention time: 12.2 min
Base peak: 910.4915
Precursor m/z: 910.492
Precursor type: [M+H]+
m/z	relative intensity	assigned
67.0541	1	C5H7+
69.0334	7	C4H5O+
69.0697	3	C5H9+
70.065	6	C4H8N+
74.0236	5	C2H4NO2+
79.0541	11	C6H7+
81.0696	2	C6H9+
82.065	12	C5H8N+
84.0443	50	C4H6NO+
86.0963	670	C5H12N+
89.0708	20	C3H9N2O+
91.0541	93	C7H7+
93.0698	30	C7H9+
95.049	7	C6H7O+
95.0854	22	C7H11+
96.0807	2	C6H10N+
98.06	1	C5H8NO+
99.0801	2	C6H11O+
99.0916	7	C5H11N2+
102.0549	24	C4H8NO2+
103.0541	53	C8H7+
104.0578	1	C3H8N2O2+
105.0698	75	C8H9+
107.0854	481	C8H11+
108.0807	2	C7H10N+
109.0647	5	C7H9O+
109.101	1	C8H13+
110.06	9	C6H8NO+
110.0965	1	C7H12N+
112.0389	1	C5H6NO2+
112.0755	2	C6H10NO+
112.112	1	C7H14N+
115.054	7	C9H7+
115.0865	2	C5H11N2O+
117.0698	25	C9H9+
119.0853	16	C9H11+
120.0807	2	C8H10N+
121.0647	5	C8H9O+
121.1011	9	C9H13+
122.0601	1	C7H8NO+
122.0964	9	C8H12N+
123.0805	9	C8H11O+
123.0917	2	C7H11N2+
124.0756	25	C7H10NO+
124.112	131	C8H14N+
125.1153	5	C3H15N3O2+
126.0548	6	C6H8NO2+
127.0864	301	C6H11N2O+
128.0704	10	C6H10NO2+
128.0898	12	CH12N4O3+
129.0696	10	C10H9+
130.0498	31	C5H8NO3+
131.0855	51	C10H11+
131.1178	11	C6H15N2O+
132.0808	1	C9H10N+
133.0644	5	C9H9O+
133.1011	20	C10H13+
134.096	1	C9H12N+
135.0803	967	C9H11O+
135.1166	422	C10H15+
136.0754	2	C8H10NO+
136.0836	42	C4H12N2O3+
136.12	21	C5H16N2O2+
138.0547	139	C7H8NO2+
139.058	2	H7N6O3+
139.0866	1	C7H11N2O+
140.0704	10	C7H10NO2+
141.0697	1	C11H9+
141.1019	1	C7H13N2O+
143.0856	50	C11H11+
144.0886	1	C4H10N5O+
145.1011	27	C11H13+
146.0963	7	C10H12N+
147.0804	4	C10H11O+
147.1167	8	C11H15+
149.0707	7	C8H9N2O+
149.0959	2	C10H13O+
150.0914	2	C9H12NO+
150.1278	9	C10H16N+
152.0704	16	C8H10NO2+
152.1068	2	C9H14NO+
153.0651	1	C7H9N2O2+
153.1021	2	C8H13N2O+
154.1224	1	C9H16NO+
155.0813	534	C7H11N2O2+
156.0653	9	C7H10NO3+
156.0784	2	C8H12O3+
156.0843	16	H10N7O3+
157.1011	13	C12H13+
157.1334	97	C8H17N2O+
158.1367	1	C3H18N4O3+
159.0802	5	C11H11O+
159.1166	17	C12H15+
160.1118	2	C11H14N+
161.0961	65	C11H13O+
162.0991	4	C4H12N5O2+
162.1275	23	C11H16N+
163.1115	820	C11H15O+
164.1148	48	C4H14N5O2+
165.0909	8	C10H13O2+
167.0811	61	C8H11N2O2+
168.0652	10	C8H10NO3+
169.1008	14	C13H13+
170.0808	7	C8H12NO3+
171.0804	16	C12H11O+
171.1164	20	C13H15+
171.1489	5	C9H19N2O+
172.1078	19	C7H14N3O2+
173.0916	371	C7H13N2O3+
174.0955	9	C2H14N4O5+
174.1037	4	C12H14O+
175.1114	17	C12H15O+
176.0704	1	C10H10NO2+
176.1069	1	C11H14NO+
178.1226	11	C11H16NO+
178.1349	1	C12H18O+
179.0852	1	C14H11+
180.138	19	C11H18NO+
181.1006	7	C14H13+
181.1219	2	C11H17O2+
181.1333	5	C10H17N2O+
182.0811	8	C9H12NO3+
183.076	10	C8H11N2O3+
183.1166	4	C14H15+
183.149	8	C10H19N2O+
185.0919	19	C8H13N2O3+
185.128	86	C9H17N2O2+
186.0758	5	C8H12NO4+
186.0908	1	C12H12NO+
187.1115	27	C13H15O+
188.1067	7	C12H14NO+
188.1428	6	C13H18N+
189.1276	4	C13H17O+
190.1224	26	C12H16NO+
190.1587	2	C13H20N+
191.1067	4	C12H15O2+
193.0972	6	C10H13N2O2+
193.1218	2	C12H17O2+
194.1647	2	C11H20N3+
195.076	155	C9H11N2O3+
195.1166	25	C15H15+
196.0601	20	C9H10NO4+
196.0794	7	C2H10N7O4+
196.1195	2	C8H14N5O+
197.1278	18	C10H17N2O2+
197.1643	2	C11H21N2O+
198.0756	8	C9H12NO4+
198.1489	1	C11H20NO2+
200.1025	42	C8H14N3O3+
201.0865	347	C8H13N2O4+
202.0903	13	C3H14N4O6+
203.1063	4	C13H15O2+
204.1379	12	C13H18NO+
206.1536	2	C13H20NO+
207.1173	8	C2H17N5O6+
209.096	3	C15H13O+
209.1314	46	H17N8O5+
210.0756	2	C10H12NO4+
210.1233	4	C10H16N3O2+
211.0706	5	C9H11N2O4+
211.1437	11	C11H19N2O2+
213.0867	999	C9H13N2O4+
214.0708	7	C9H12NO5+
214.0903	47	C4H14N4O6+
215.1054	6	C12H13N3O+
216.1377	2	C14H18NO+
218.1132	333	C8H16N3O4+
218.1536	110	C14H20NO+
219.0971	6	C8H15N2O5+
219.1572	9	C9H21N3O3+
220.1078	5	C11H14N3O2+
221.0915	8	C11H13N2O3+
222.1601	4	C12H20N3O+
223.1072	27	C11H15N2O3+
223.1438	2	C12H19N2O2+
225.1245	11	C11H17N2O3+
226.1586	82	C16H20N+
227.1025	1	C10H15N2O4+
227.1619	6	C11H21N3O2+
228.138	14	C15H18NO+
232.0966	6	C13H14NO3+
232.1336	1	H20N6O8+
234.1486	5	C14H20NO2+
235.1073	8	C12H15N2O3+
235.1477	6	C18H19+
236.1639	1	C14H22NO2+
237.1231	98	C12H17N2O3+
237.1634	189	C18H21+
238.1178	6	C11H16N3O3+
238.1668	20	C11H20N5O+
239.0659	75	C10H11N2O5+
239.102	6	C11H15N2O4+
240.0693	2	C3H10N7O6+
240.1704	10	C12H22N3O2+
241.1181	1	C11H17N2O4+
241.1585	2	C17H21O+
243.1336	86	C11H19N2O4+
244.134	7	CH20N6O8+
246.1485	212	C15H20NO2+
247.1071	2	C13H15N2O3+
247.149	29	C5H21N5O6+
248.1026	3	C12H14N3O3+
248.1635	4	C15H22NO2+
250.1433	2	C14H20NO3+
250.1545	26	C13H20N3O2+
251.1021	23	C12H15N2O4+
251.1387	11	C13H19N2O3+
251.1749	14	C14H23N2O2+
253.1182	1	C12H17N2O4+
254.1899	5	C18H24N+
256.1295	2	C12H14N7+
257.1279	6	C15H17N2O2+
258.1849	163	C17H24NO+
259.1446	1	CH21N7O8+
259.1799	14	C16H23N2O+
259.1899	9	C12H25N3O3+
262.1428	6	C15H20NO3+
263.1424	4	C19H19O+
263.1757	1	CH25N7O8+
263.2111	2	C16H27N2O+
264.159	28	C15H22NO3+
264.1724	2	C16H24O3+
265.1583	136	C19H21O+
266.1132	19	C12H16N3O4+
266.1615	15	C12H20N5O2+
267.0964	2	C12H15N2O5+
268.1651	270	C13H22N3O3+
269.1129	42	C12H17N2O5+
269.1487	2	C13H21N2O4+
269.1689	19	C8H23N5O5+
272.1236	19	C11H18N3O5+
272.1639	1	C17H22NO2+
274.1433	27	C16H20NO3+
279.1329	6	C14H19N2O4+
282.1848	71	C19H24NO+
284.124	34	C12H18N3O5+
285.193	5	C15H27NO4+
286.1757	38	C13H24N3O4+
287.1756	13	
288.1585	1	C17H22NO3+
290.1383	9	C16H20NO4+
291.1716	1	C2H25N7O9+
292.154	71	C16H22NO4+
293.1128	48	C14H17N2O5+
293.1576	6	C11H23N3O6+
294.1443	9	C14H20N3O4+
296.1605	8	C14H22N3O4+
297.1842	23	
301.1908	6	C18H25N2O2+
302.1495	1	C16H20N3O3+
303.1333	7	C16H19N2O4+
310.1031	18	C13H16N3O6+
312.1187	2	C13H18N3O6+
313.1867	45	C14H25N4O4+
314.1708	91	C14H24N3O5+
314.2098	15	C18H26N4O+
316.154	4	C18H22NO4+
317.1863	4	C4H27N7O9+
319.2012	24	C18H27N2O3+
320.16	16	C16H22N3O4+
320.2006	26	C22H26NO+
322.1397	12	C15H20N3O5+
324.1921	8	C16H26N3O4+
325.2234	1	C16H29N4O3+
329.1855	77	C19H25N2O3+
330.1288	2	C11H18N6O6+
331.1975	76	C14H27N4O5+
332.1825	1	C15H22N7O2+
332.201	6	C23H26NO+
340.1499	12	C15H22N3O6+
342.1666	2	C15H24N3O6+
345.1812	7	C5H27N7O10+
347.1962	159	C19H27N2O4+
348.1968	36	C9H28N6O8+
351.2025	35	C17H27N4O4+
352.1864	6	C17H26N3O5+
352.2265	4	C23H30NO2+
357.1808	18	C20H25N2O4+
357.2129	15	C16H29N4O5+
364.1495	8	C15H20N6O5+
366.166	2	C17H24N3O6+
366.2063	5	C23H28NO3+
369.2134	2	C17H29N4O5+
375.1912	565	C20H27N2O5+
376.1943	56	C13H26N7O6+
379.1975	9	C18H27N4O5+
380.182	2	C18H26N3O6+
380.2192	24	C20H26N7O+
384.2271	36	C20H28N6O2+
385.2084	28	C17H29N4O6+
394.2014	4	C24H28NO4+
397.208	183	C18H29N4O6+
398.2115	16	C25H26N4O+
400.2232	20	C22H30N3O4+
402.2342	19	C31H30+
407.229	1	C20H31N4O5+
418.2333	5	C22H32N3O5+
428.2178	22	C23H30N3O5+
431.2325	8	C27H31N2O3+
433.2464	4	C10H37N6O12+
437.2029	4	C20H29N4O7+
440.2493	7	C19H38NO10+
446.2283	91	C23H32N3O6+
447.2304	16	
449.2438	11	C13H35N7O10+
450.2356	5	C21H32N5O6+
462.2337	5	C21H36NO10+
463.226	1	C28H27N6O+
463.257	14	C26H33N5O3+
467.2619	11	C21H35N6O6+
468.2446	38	C35H32O+
469.2475	6	C28H31N5O2+
475.2898	2	C25H39N4O5+
477.2387	28	
478.2421	1	C23H34N4O7+
480.2469	2	C24H36N2O8+
481.2711	2	C14H39N7O11+
486.2738	1	C28H34N6O2+
491.2538	3	C26H37NO8+
493.3023	4	C25H41N4O6+
508.2407	14	C23H34N5O8+
509.2647	22	C29H37N2O6+
513.3073	10	C28H41N4O5+
518.3014	13	C31H40N3O4+
519.3048	2	C28H43N2O7+
534.2553	1	C39H34O2+
551.2812	4	C37H35N4O+
559.3127	6	C29H43N4O7+
562.2901	1	C30H38N6O5+
579.2773	1	C26H39N6O9+
626.3573	1	C36H46N6O4+
647.3779	2	C34H53N3O9+
671.3463	2	C41H45N5O4+
714.4184	7	C36H56N7O8+
741.3807	6	C37H53N6O10+
758.4079	7	C37H56N7O10+
776.4172	1	C37H58N7O11+
