Mass spectrum: Microcystin-LA; LC-ESI-QFT; MS2; CE: 45; R=35000; [M+H]+
Name: Microcystin-LA
Name: (5R,8S,11R,12S,15S,18S,19S,22R)-18-[(1E,3E,5S,6S)-6-methoxy-3,5-dimethyl-7-phenylhepta-1,3-dienyl]-1,5,12,15,19-pentamethyl-2-methylidene-8-(2-methylpropyl)-3,6,9,13,16,20,25-heptaoxo-1,4,7,10,14,17,21-heptazacyclopentacosane-11,22-dicarboxylic acid
Formula: C46H67N7O12
Exact mass: 909.48477
SMILES: O=C2N[C@@H](\C=C\C(=C\[C@H](C)[C@@H](OC)Cc1ccccc1)C)[C@@H](C(=O)N[C@@H](C(=O)O)CCC(=O)N(/C(=C)C(=O)N[C@@H](C(=O)N[C@H](C(=O)N[C@@H](C(=O)O)[C@@H](C(=O)N[C@H]2C)C)CC(C)C)C)C)C
InChI: InChI=1S/C46H67N7O12/c1-24(2)21-35-44(60)52-38(46(63)64)28(6)40(56)47-29(7)41(57)49-33(18-17-25(3)22-26(4)36(65-11)23-32-15-13-12-14-16-32)27(5)39(55)50-34(45(61)62)19-20-37(54)53(10)31(9)43(59)48-30(8)42(58)51-35/h12-18,22,24,26-30,33-36,38H,9,19-21,23H2,1-8,10-11H3,(H,47,56)(H,48,59)(H,49,57)(H,50,55)(H,51,58)(H,52,60)(H,61,62)(H,63,64)/b18-17+,25-22+/t26-,27-,28-,29-,30+,33-,34+,35-,36-,38+/m0/s1
Instrument: Q Exactive Orbitrap Thermo Scientific
Instrument type: LC-ESI-QFT
Ms type: MS2
Ion mode: POSITIVE
Ionization: ESI
Fragmentation mode: HCD
Collision energy: 45 (nominal)
Resolution: 35000
Column name: XBridge C18 3.5um, 2.1x50mm, Waters
Retention time: 12.2 min
Base peak: 910.4915
Precursor m/z: 910.492
Precursor type: [M+H]+
m/z	relative intensity	assigned
65.0385	8	C5H5+
67.0542	8	C5H7+
68.0495	2	C4H6N+
69.0334	31	C4H5O+
69.0698	9	C5H9+
70.0651	9	C4H8N+
74.0234	2	C2H4NO2+
79.0542	63	C6H7+
80.0494	6	C5H6N+
81.0699	9	C6H9+
82.0287	5	C4H4NO+
82.065	48	C5H8N+
83.0491	2	C5H7O+
84.0443	155	C4H6NO+
84.0806	12	C5H10N+
85.0283	1	C4H5O2+
85.0649	2	C5H9O+
86.0964	664	C5H12N+
88.0393	1	C3H6NO2+
89.0709	26	C3H9N2O+
90.0549	1	C3H8NO2+
91.0541	221	C7H7+
93.0698	136	C7H9+
94.065	10	C6H8N+
94.0732	5	C2H10N2O2+
95.0491	31	C6H7O+
95.0855	31	C7H11+
96.0807	13	C6H10N+
97.0761	1	C5H9N2+
98.0601	1	C5H8NO+
99.0916	39	C5H11N2+
100.0757	5	C5H10NO+
101.0709	5	C4H9N2O+
102.0549	30	C4H8NO2+
103.0542	208	C8H7+
104.0575	5	C3H8N2O2+
105.0698	249	C8H9+
106.0732	7	C3H10N2O2+
107.0855	999	C8H11+
108.0807	7	C7H10N+
109.0647	20	C7H9O+
109.1011	3	C8H13+
110.06	48	C6H8NO+
110.0962	2	C7H12N+
112.0392	7	C5H6NO2+
112.0756	10	C6H10NO+
112.1121	12	C7H14N+
113.0235	9	C5H5O3+
113.071	4	C5H9N2O+
114.0549	2	C5H8NO2+
115.0542	26	C9H7+
116.0618	2	C9H8+
117.0698	104	C9H9+
119.0603	4	C7H7N2+
119.0855	35	C9H11+
120.0568	5	C8H8O+
120.0806	6	C8H10N+
120.0932	1	C9H12+
121.0646	11	C8H9O+
121.0758	7	C7H9N2+
121.1011	22	C9H13+
122.0598	7	C7H8NO+
122.0964	19	C8H12N+
123.0804	6	C8H11O+
123.0917	7	C7H11N2+
124.0757	43	C7H10NO+
124.112	80	C8H14N+
125.0709	8	C6H9N2O+
125.1073	1	C7H13N2+
125.1153	1	C3H15N3O2+
126.0549	4	C6H8NO2+
126.1271	1	C8H16N+
127.0865	808	C6H11N2O+
128.0623	8	C10H8+
128.0705	39	C6H10NO2+
128.0899	25	CH12N4O3+
129.0655	1	C5H9N2O2+
129.0696	24	C10H9+
130.0498	43	C5H8NO3+
130.0651	5	C9H8N+
130.0774	2	C10H10+
131.0854	77	C10H11+
131.1178	8	C6H15N2O+
132.0809	7	C9H10N+
132.0889	1	C5H12N2O2+
133.0648	5	C9H9O+
133.1011	42	C10H13+
134.0964	2	C9H12N+
134.1046	1	C5H14N2O2+
135.0804	901	C9H11O+
135.1166	751	C10H15+
136.0758	10	C8H10NO+
136.0836	43	C4H12N2O3+
137.0708	3	C7H9N2O+
137.0958	4	C9H13O+
138.0547	180	C7H8NO2+
139.0582	4	C2H9N3O4+
139.0863	7	C7H11N2O+
140.0704	18	C7H10NO2+
141.0651	2	C4H7N5O+
141.0699	4	C11H9+
141.1019	10	C7H13N2O+
142.0774	1	C11H10+
143.0855	52	C11H11+
145.1011	65	C11H13+
146.0964	32	C10H12N+
146.1091	14	C11H14+
147.0802	6	C10H11O+
147.0997	1	C5H13N3O2+
147.1168	7	C11H15+
148.0754	2	C9H10NO+
148.1117	1	C10H14N+
149.0708	32	C8H9N2O+
149.0959	1	C10H13O+
150.0548	4	C8H8NO2+
150.0912	5	C9H12NO+
150.1277	11	C10H16N+
151.0864	11	C8H11N2O+
152.0704	21	C8H10NO2+
152.1069	7	C9H14NO+
153.1023	8	C8H13N2O+
154.1225	1	C9H16NO+
155.0813	484	C7H11N2O2+
156.0653	34	C7H10NO3+
156.0788	1	C8H12O3+
156.0844	17	H10N7O3+
157.1011	7	C12H13+
157.1334	79	C8H17N2O+
158.0965	2	C11H12N+
158.1369	2	C3H18N4O3+
159.0802	6	C11H11O+
159.1167	28	C12H15+
160.1119	8	C11H14N+
160.119	1	C5H14N5O+
161.096	44	C11H13O+
161.132	9	C12H17+
162.0911	4	C10H12NO+
162.0987	3	C4H12N5O2+
162.1276	30	C11H16N+
163.1116	412	C11H15O+
164.1148	26	C4H14N5O2+
165.1019	1	C9H13N2O+
167.0812	211	C8H11N2O2+
168.0655	18	C8H10NO3+
168.0846	7	C3H12N4O4+
169.1008	7	C13H13+
169.1335	2	C9H17N2O+
170.0809	7	C8H12NO3+
171.0801	14	C12H11O+
171.1165	20	C13H15+
171.1491	1	C9H19N2O+
172.1127	1	C12H14N+
173.0917	305	C7H13N2O3+
174.0954	8	C2H14N4O5+
174.1036	9	C12H14O+
175.1119	2	C12H15O+
176.0703	5	C10H10NO2+
176.1068	4	C11H14NO+
177.1015	1	C10H13N2O+
178.0861	4	C10H12NO2+
178.1224	7	C11H16NO+
178.135	6	C12H18O+
179.0858	2	H13N5O6+
180.0932	3	C14H12+
180.1381	9	C11H18NO+
181.1016	23	C14H13+
181.1334	23	C10H17N2O+
182.0812	9	C9H12NO3+
183.0762	9	C8H11N2O3+
183.1168	8	C14H15+
183.1491	16	C10H19N2O+
185.0923	5	C8H13N2O3+
185.1279	10	C9H17N2O2+
186.0761	2	C8H12NO4+
186.0913	5	C12H12NO+
187.1116	13	C13H15O+
188.107	14	C12H14NO+
188.1432	16	C13H18N+
189.1273	4	C13H17O+
190.1226	15	C12H16NO+
190.159	12	C13H20N+
191.1071	2	C12H15O2+
192.0928	1	C15H12+
192.1134	1	C10H14N3O+
193.0972	8	C10H13N2O2+
194.1087	4	C15H14+
194.165	8	C11H20N3+
195.0761	150	C9H11N2O3+
195.1165	33	C15H15+
196.0601	35	C9H10NO4+
196.0794	7	C2H10N7O4+
196.1197	2	C8H14N5O+
197.0631	1	C2H9N6O5+
197.1279	11	C10H17N2O2+
198.0753	1	C9H12NO4+
198.1119	1	C10H16NO3+
200.102	8	C8H14N3O3+
200.1432	3	C14H18N+
201.0866	136	C8H13N2O4+
202.0901	2	C3H14N4O6+
202.1583	2	C14H20N+
204.1378	3	C13H18NO+
206.1082	1	C16H14+
206.1537	1	C13H20NO+
207.1165	6	C16H15+
208.1244	2	C16H16+
209.1311	36	H17N8O5+
210.1234	1	C10H16N3O2+
210.1345	1	C8H20NO5+
211.071	7	C9H11N2O4+
211.1079	1	C10H15N2O3+
212.1029	5	C9H14N3O3+
213.0867	627	C9H13N2O4+
214.0711	8	C9H12NO5+
214.0906	25	C4H14N4O6+
215.1063	4	C12H13N3O+
215.1391	1	C10H19N2O3+
216.1382	2	C14H18NO+
218.1131	23	C8H16N3O4+
218.1537	69	C14H20NO+
219.1575	5	C9H21N3O3+
220.1074	9	C11H14N3O2+
221.0921	9	C11H13N2O3+
222.1597	8	C12H20N3O+
223.1076	12	C11H15N2O3+
225.1233	5	C11H17N2O3+
226.1587	74	C16H20N+
227.162	7	C11H21N3O2+
228.1384	7	C15H18NO+
232.0963	6	C13H14NO3+
232.1236	4	C18H16+
234.1486	5	C14H20NO2+
235.1077	3	C12H15N2O3+
236.164	1	C14H22NO2+
237.1233	13	C12H17N2O3+
237.1635	61	C18H21+
238.1177	2	C11H16N3O3+
238.1668	1	C11H20N5O+
239.0659	60	C10H11N2O5+
239.1023	10	C11H15N2O4+
240.0688	2	C3H10N7O6+
240.1706	1	C12H22N3O2+
241.118	2	C11H17N2O4+
243.1338	50	C11H19N2O4+
244.1346	2	CH20N6O8+
246.1485	50	C15H20NO2+
247.1068	1	C13H15N2O3+
247.1474	8	C19H19+
248.1029	1	C12H14N3O3+
250.1548	7	C13H20N3O2+
251.1017	4	C12H15N2O4+
251.1384	10	C13H19N2O3+
251.1748	2	C14H23N2O2+
254.1893	4	C18H24N+
256.1297	1	C12H14N7+
257.1282	4	C15H17N2O2+
258.185	15	C17H24NO+
259.1796	12	C16H23N2O+
262.1433	1	C15H20NO3+
263.2119	1	C16H27N2O+
264.1581	1	C15H22NO3+
264.1715	2	C16H24O3+
265.1584	16	C19H21O+
266.1133	9	C12H16N3O4+
266.1622	2	C14H22N2O3+
267.0968	1	C12H15N2O5+
268.1652	14	C13H22N3O3+
269.1132	11	C12H17N2O5+
269.1489	1	C13H21N2O4+
279.1333	1	C14H19N2O4+
282.1851	11	C19H24NO+
284.1236	2	C12H18N3O5+
285.196	1	C18H25N2O+
293.1127	8	C14H17N2O5+
294.1444	1	C14H20N3O4+
296.1604	1	C14H22N3O4+
297.1442	1	C14H21N2O5+
302.1498	1	C16H20N3O3+
306.1848	1	C19H22N4+
313.1884	1	C14H25N4O4+
319.2012	12	C18H27N2O3+
320.16	4	C16H22N3O4+
320.2005	6	C22H26NO+
329.1859	9	C19H25N2O3+
347.1964	14	C19H27N2O4+
375.1918	17	
376.1947	2	C15H28N4O7+
384.2271	9	C20H28N6O2+
400.2228	1	C22H30N3O4+
