Mass spectrum: Metoprolol; LC-ESI-QTOF; MS2; CE: Ramp 20.5-30.7 eV; R=35000; [M+H]+
Name: Metoprolol
Name: 1-[4-(2-methoxyethyl)phenoxy]-3-(propan-2-ylamino)propan-2-ol
Formula: C15H25NO3
Exact mass: 267.1834
SMILES: CC(C)NCC(COc1ccc(cc1)CCOC)O
InChI: InChI=1S/C15H25NO3/c1-12(2)16-10-14(17)11-19-15-6-4-13(5-7-15)8-9-18-3/h4-7,12,14,16-17H,8-11H2,1-3H3
Instrument: Bruker maXis Impact
Instrument type: LC-ESI-QTOF
Ms type: MS2
Ion mode: POSITIVE
Ionization: ESI
Fragmentation mode: CID
Collision energy: Ramp 20.5-30.7 eV
Resolution: 35000
Column name: Acclaim RSLC C18 2.2um, 2.1x100mm, Thermo
Retention time: 5.1 min
Base peak: 268.1925
Precursor m/z: 268.1907
Precursor type: [M+H]+
m/z	relative intensity	assigned
56.049	282	C3H6N+
58.0645	77	C3H8N+
60.0801	12	C3H10N+
72.0804	535	C4H10N+
74.0597	576	C3H8NO+
79.0538	6	C6H7+
84.0803	12	C5H10N+
86.0963	9	C5H12N+
91.0541	23	C7H7+
93.0703	7	C7H9+
98.0971	238	C6H12N+
99.1006	14	C6H13N+
100.1127	8	C6H14N+
103.0549	8	C8H7+
105.0708	24	C8H9+
116.108	218	C6H14NO+
117.111	12	C6H15NO+
119.0859	6	C9H11+
121.0653	143	C8H9O+
122.0682	10	C8H10O+
129.0699	7	C10H9+
131.0859	31	C10H11+
133.065	154	C9H9O+
134.0681	10	C9H10O+
135.0806	11	C9H11O+
141.0696	9	C11H9+
144.0569	15	C10H8O+
147.0801	22	C10H11O+
148.0755	47	C9H10NO+
151.0753	15	C9H11O2+
159.0806	181	C11H11O+
160.0839	20	C11H12O+
161.0966	9	C11H13O+
163.0869	22	C9H11N2O+
163.1111	10	C11H15O+
165.0911	66	C10H13O2+
166.0944	5	C10H14O2+
176.107	59	C11H14NO+
177.0913	40	C11H13O2+
177.1102	7	C11H15NO+
179.1072	11	C11H15O2+
191.1072	176	C12H15O2+
192.1104	20	C12H16O2+
194.1183	39	C11H16NO2+
218.1551	50	C14H20NO+
226.1447	72	C12H20NO3+
227.1479	8	C12H21NO3+
250.1811	30	C15H24NO2+
268.1923	999	C15H26NO3+
269.1953	178	C14H25N2O3+
270.1982	15	C14H26N2O3+
