Mass spectrum: Atenolol acid; LC-ESI-QTOF; MS2; CE: 30 eV; R=35000; [M+H]+
Name: Atenolol acid
Name: Metoprolol acid
Name: 2-[4-[2-hydroxy-3-(propan-2-ylamino)propoxy]phenyl]acetic acid
Formula: C14H21NO4
Exact mass: 267.1470582
SMILES: CC(C)NCC(O)COC1=CC=C(CC(O)=O)C=C1
InChI: InChI=1S/C14H21NO4/c1-10(2)15-8-12(16)9-19-13-5-3-11(4-6-13)7-14(17)18/h3-6,10,12,15-16H,7-9H2,1-2H3,(H,17,18)
Instrument: Bruker maXis Impact
Instrument type: LC-ESI-QTOF
Ms type: MS2
Ion mode: POSITIVE
Ionization: ESI
Fragmentation mode: CID
Collision energy: 30 eV
Resolution: 35000
Column name: Acclaim RSLC C18 2.2um, 2.1x100mm, Thermo
Retention time: 3.8 min
Base peak: 268.1541
Precursor m/z: 268.1543
Precursor type: [M+H]+
m/z	relative intensity	assigned
115.0534	16	C9H7+
116.106	22	C6H14NO+
117.0697	15	C9H9+
119.0484	25	C8H7O+
123.0434	18	C7H7O2+
133.0639	24	C9H9O+
135.0444	8	C8H7O2+
137.0588	55	C8H9O2+
138.0626	5	C3H10N2O4+
145.0641	999	C10H9O+
146.0671	86	C9[13]CH9O+
147.044	5	C9H7O2+
153.0539	11	C8H9O3+
162.0907	21	C10H12NO+
163.049	64	C8H7N2O2+
163.0739	37	C10H11O2+
164.0521	6	C12H6N+
165.0536	278	C9H9O3+
166.0573	28	C8[13]CH9O3+
179.0696	21	C10H11O3+
191.0694	361	C11H11O3+
192.0731	38	C10[13]CH11O3+
208.0964	5	C11H14NO3+
226.1064	64	C11H16NO4+
227.1103	7	C10[13]CH16NO4+
250.1449	8	C14H20NO3+
268.1534	92	C14H22NO4+
