Mass spectrum: Microcystin-LY; LC-ESI-QFT; MS2; CE: 75; R=35000; [M-H]-
Name: Microcystin-LY
Name: 15-[(4-hydroxyphenyl)methyl]-18-[(1Z,3E)-6-methoxy-3,5-dimethyl-7-phenylhepta-1,3-dienyl]-1,5,12,19-tetramethyl-2-methylidene-8-(2-methylpropyl)-3,6,9,13,16,20,25-heptaoxo-1,4,7,10,14,17,21-heptazacyclopentacosane-11,22-dicarboxylic acid
Formula: C52H71N7O13
Exact mass: 1001.51099
SMILES: O=C(O)C2NC(=O)C(NC(=O)C(NC(=O)\C(=C)N(C(=O)CCC(C(=O)O)NC(=O)C(C)C(/C=C\C(=C\C(C)C(OC)Cc1ccccc1)C)NC(=O)C(NC(=O)C2C)Cc3ccc(O)cc3)C)C)CC(C)C
InChI: InChI=1S/C52H71N7O13/c1-28(2)24-40-50(67)58-44(52(70)71)32(6)46(63)56-41(26-36-17-19-37(60)20-18-36)49(66)54-38(21-16-29(3)25-30(4)42(72-10)27-35-14-12-11-13-15-35)31(5)45(62)55-39(51(68)69)22-23-43(61)59(9)34(8)48(65)53-33(7)47(64)57-40/h11-21,25,28,30-33,38-42,44,60H,8,22-24,26-27H2,1-7,9-10H3,(H,53,65)(H,54,66)(H,55,62)(H,56,63)(H,57,64)(H,58,67)(H,68,69)(H,70,71)/b21-16-,29-25+
Instrument: Q Exactive Orbitrap Thermo Scientific
Instrument type: LC-ESI-QFT
Ms type: MS2
Ion mode: NEGATIVE
Ionization: ESI
Fragmentation mode: HCD
Collision energy: 75 (nominal)
Resolution: 35000
Column name: XBridge C18 3.5um, 2.1x50mm, Waters
Retention time: 12.5 min
Base peak: 1000.5046
Precursor m/z: 1000.5037
Precursor type: [M-H]-
m/z	relative intensity	assigned
70.0298	35	C3H4NO-
71.0251	44	C2H3N2O-
71.0501	6	C4H7O-
72.0091	30	C2H2NO2-
72.0455	183	C3H6NO-
73.0295	85	C3H5O2-
73.0408	36	C2H5N2O-
74.0248	196	C2H4NO2-
80.0506	95	C5H6N-
81.022	23	C4H3NO-
81.0458	31	C4H5N2-
82.0173	41	C3H2N2O-
82.0299	195	C4H4NO-
82.0662	183	C5H8N-
83.0251	63	C3H3N2O-
83.0502	7	C5H7O-
83.0614	4	C4H7N2-
84.0455	300	C4H6NO-
84.0819	44	C5H10N-
85.0295	7	C4H5O2-
85.0407	70	C3H5N2O-
86.0248	6	C3H4NO2-
86.0611	9	C4H8NO-
87.0564	292	C3H7N2O-
88.0404	34	C3H6NO2-
91.0553	13	C7H7-
92.0506	19	C6H6N-
93.0345	107	C6H5O-
93.046	6	C5H5N2-
94.0298	53	C5H4NO-
94.0663	41	C6H8N-
95.0252	94	C4H3N2O-
95.0377	6	C5H5NO-
96.033	27	C4H4N2O-
96.0455	116	C5H6NO-
96.0819	61	C6H10N-
97.0044	21	C3HN2O2-
97.0407	160	C4H5N2O-
97.0771	20	C5H9N2-
98.0122	60	C3H2N2O2-
98.0248	42	C4H4NO2-
98.0611	23	C5H8NO-
99.02	30	C3H3N2O2-
99.0564	394	C4H7N2O-
100.0406	9	C4H6NO2-
101.072	26	C4H9N2O-
102.056	21	C4H8NO2-
106.0662	14	C7H8N-
107.0253	10	C5H3N2O-
107.0377	22	C6H5NO-
107.0501	41	C7H7O-
107.0614	22	C6H7N2-
108.0218	34	C6H4O2-
108.0329	128	C5H4N2O-
108.0455	44	C6H6NO-
108.0819	7	C7H10N-
109.0169	97	C5H3NO2-
109.0407	241	C5H5N2O-
109.0772	25	C6H9N2-
110.0248	999	C5H4NO2-
111.02	126	C4H3N2O2-
111.0564	88	C5H7N2O-
112.0404	203	C5H6NO2-
112.0768	192	C6H10NO-
113.0357	156	C4H5N2O2-
114.0924	10	C6H12NO-
117.0346	194	C8H5O-
118.0301	6	C7H4NO-
119.0502	815	C8H7O-
120.0455	59	C7H6NO-
120.0819	6	C8H10N-
121.0295	22	C7H5O2-
121.0407	30	C6H5N2O-
121.0533	7	C7H7NO-
122.0247	33	C6H4NO2-
122.0363	5	C5H4N3O-
122.0486	80	C6H6N2O-
122.0611	46	C7H8NO-
122.0976	49	C8H12N-
123.0202	40	C5H3N2O2-
123.0325	77	C6H5NO2-
123.044	45	C5H5N3O-
123.0564	152	C6H7N2O-
124.0278	25	C5H4N2O2-
124.0403	469	C6H6NO2-
124.0516	32	C5H6N3O-
125.0356	69	C5H5N2O2-
125.0594	204	C5H7N3O-
125.072	56	C6H9N2O-
126.056	25	C6H8NO2-
127.0513	232	C5H7N2O2-
127.0875	36	C6H11N2O-
128.0353	942	C5H6NO3-
129.1034	610	C6H13N2O-
130.0873	58	C6H12NO2-
131.0376	39	C8H5NO-
131.0866	21	C10H11-
132.0455	20	C8H6NO-
132.0579	7	C9H8O-
133.0297	5	C8H5O2-
133.0407	10	C7H5N2O-
133.0533	76	C8H7NO-
134.0249	5	C7H4NO2-
134.0612	102	C8H8NO-
135.0326	45	C7H5NO2-
135.0565	22	C7H7N2O-
136.0404	22	C7H6NO2-
136.0515	24	C6H6N3O-
136.064	6	C7H8N2O-
136.0765	10	C8H10NO-
136.113	22	C9H14N-
137.0354	8	C6H5N2O2-
137.0593	10	C6H7N3O-
137.072	26	C7H9N2O-
138.0434	174	C6H6N2O2-
138.0558	43	C7H8NO2-
138.0798	30	C7H10N2O-
139.0512	25	C6H7N2O2-
139.0877	247	C7H11N2O-
140.0722	6	C7H10NO2-
140.108	11	C8H14NO-
141.0671	43	C6H9N2O2-
144.0455	74	C9H6NO-
145.0294	145	C9H5O2-
146.0609	5	C9H8NO-
149.0355	24	C7H5N2O2-
149.072	18	C8H9N2O-
150.0559	128	C8H8NO2-
150.067	9	C7H8N3O-
151.0513	8	C7H7N2O2-
151.0874	7	C8H11N2O-
152.0828	27	C7H10N3O-
153.0668	88	C7H9N2O2-
153.1032	81	C8H13N2O-
154.0984	5	C7H12N3O-
155.0825	77	C7H11N2O2-
155.119	95	C8H15N2O-
157.1346	20	C8H17N2O-
160.0403	34	C9H6NO2-
162.056	85	C9H8NO2-
163.0877	6	C9H11N2O-
164.0826	9	C8H10N3O-
165.067	23	C8H9N2O2-
165.1031	254	C9H13N2O-
166.0876	5	C9H12NO2-
166.0985	5	C8H12N3O-
167.0827	44	C8H11N2O2-
167.1189	6	C9H15N2O-
168.0909	6	C8H12N2O2-
169.0377	8	C7H7NO4-
169.1346	27	C9H17N2O-
170.0609	10	C11H8NO-
170.0928	6	C7H12N3O2-
179.1192	6	C10H15N2O-
180.1141	138	C9H14N3O-
181.0978	11	C9H13N2O2-
182.1296	591	C9H16N3O-
183.1139	25	C9H15N2O2-
193.0732	27	C8H9N4O2-
200.1405	44	C9H18N3O2-
208.1096	24	C10H14N3O2-
