Mass spectrum: GalGlcNAcMan3GlcNAc2-I; LC-ESI-QQ; MS2; CE:20V; Amide
Name: GalGlcNAcMan3GlcNAc2-I
Name: Gal-beta-1-4GlcNAc-beta-1-2Man-alpha-1-6(Man-alpha-1-3)Man-beta-1-4GlcNAc-beta1-4GlcNAc
Class: Natural Product; Oligosaccharide; N-linked glycan; Complex type
Formula: C48H81N3O36
Exact mass: 1275.45998
SMILES: C(C(OC(C7O)OC(CO)C(C(O)7)O)1)(CO)OC(OC(C2OCC(O3)C(C(OC(C6O)OC(CO)C(C6O)O)C(O)C3OC(C5CO)C(O)C(NC(C)=O)C(O5)OC(C(CO)4)C(C(NC(C)=O)C(O)O4)O)O)C(C(O)C(CO)O2)O)C(NC(C)=O)C1O
InChI: InChI=1S/C48H81N3O36/c1-11(58)49-21-28(65)37(17(7-55)76-42(21)74)83-43-22(50-12(2)59)29(66)39(19(9-57)80-43)85-47-36(73)40(86-46-35(72)32(69)25(62)15(5-53)78-46)27(64)20(82-47)10-75-48-41(33(70)26(63)16(6-54)79-48)87-44-23(51-13(3)60)30(67)38(18(8-56)81-44)84-45-34(71)31(68)24(61)14(4-52)77-45/h14-48,52-57,61-74H,4-10H2,1-3H3,(H,49,58)(H,50,59)(H,51,60)/t14-,15-,16-,17-,18-,19-,20-,21-,22-,23-,24+,25-,26-,27-,28-,29-,30-,31+,32+,33+,34-,35+,36+,37-,38-,39-,40+,41+,42-,43+,44+,45+,46-,47+,48+/m1/s1
Instrument: 2695 HPLC Quadro Micro API, Waters
Instrument type: LC-ESI-QQ
Ms type: MS2
Ion mode: POSITIVE
Collision energy: 20 V
Ionization: ESI
Column name: TSK-GEL Amide-80 2.0 mm X 250 mm (TOSOH)
Retention time: 23.494 min
Derivative form: C57H92N4O37
Derivative mass: 1424.54404
Derivative type: ABEE (p-Aminobenzoic acid ethyl ester)
Precursor m/z: 1426.00
Precursor type: [M+H]+
m/z	relative intensity
365.2	12
365.8	58
371.1	13
527.3	12
689.3	14
690.3	10
897.1	12
897.7	42
898.7	10
1053.6	32
1054.5	63
1055.4	39
1058.1	24
1058.9	130
1059.9	167
1060.6	83
1061.3	33
1422.7	268
1423.6	703
1424.5	999
1425.4	716
1426.1	249
1426.8	22
