Mass spectrum: Atenolol acid; LC-ESI-QTOF; MS2; CE: 40 eV; R=35000; [M+H]+
Name: Atenolol acid
Name: Metoprolol acid
Name: 2-[4-[2-hydroxy-3-(propan-2-ylamino)propoxy]phenyl]acetic acid
Formula: C14H21NO4
Exact mass: 267.1470582
SMILES: CC(C)NCC(O)COC1=CC=C(CC(O)=O)C=C1
InChI: InChI=1S/C14H21NO4/c1-10(2)15-8-12(16)9-19-13-5-3-11(4-6-13)7-14(17)18/h3-6,10,12,15-16H,7-9H2,1-2H3,(H,17,18)
Instrument: Bruker maXis Impact
Instrument type: LC-ESI-QTOF
Ms type: MS2
Ion mode: POSITIVE
Ionization: ESI
Fragmentation mode: CID
Collision energy: 40 eV
Resolution: 35000
Column name: Acclaim RSLC C18 2.2um, 2.1x100mm, Thermo
Retention time: 3.8 min
Base peak: 268.1543
Precursor m/z: 268.1543
Precursor type: [M+H]+
m/z	relative intensity	assigned
115.0535	75	C9H7+
116.0575	10	C4H8N2O2+
116.1064	6	C6H14NO+
117.0691	56	C9H9+
118.0729	8	C4H10N2O2+
119.0488	46	C8H7O+
120.053	5	C3H8N2O3+
121.0651	8	C8H9O+
123.0437	31	C7H7O2+
127.0525	6	C10H7+
131.0477	11	C9H7O+
133.0641	28	C9H9O+
135.043	42	C8H7O2+
137.0586	71	C8H9O2+
138.0627	9	C3H10N2O4+
144.055	18	C10H8O+
145.0641	999	C10H9O+
146.0671	85	C5H10N2O3+
147.0698	8	C9H9NO+
153.0536	28	C8H9O3+
155.0582	11	C7H9NO3+
162.0891	9	C7H14O4+
163.049	181	C8H7N2O2+
163.0738	21	C10H11O2+
164.053	11	C12H6N+
165.0535	117	C9H9O3+
166.0573	12	C4H10N2O5+
191.0698	36	C11H11O3+
192.0721	7	C10[13]CH11O3+
