Mass spectrum: Microcystin-LA; LC-ESI-QFT; MS2; CE: 30; R=35000; [M-H]-
Name: Microcystin-LA
Name: (5R,8S,11R,12S,15S,18S,19S,22R)-18-[(1E,3E,5S,6S)-6-methoxy-3,5-dimethyl-7-phenylhepta-1,3-dienyl]-1,5,12,15,19-pentamethyl-2-methylidene-8-(2-methylpropyl)-3,6,9,13,16,20,25-heptaoxo-1,4,7,10,14,17,21-heptazacyclopentacosane-11,22-dicarboxylic acid
Formula: C46H67N7O12
Exact mass: 909.48477
SMILES: O=C2N[C@@H](\C=C\C(=C\[C@H](C)[C@@H](OC)Cc1ccccc1)C)[C@@H](C(=O)N[C@@H](C(=O)O)CCC(=O)N(/C(=C)C(=O)N[C@@H](C(=O)N[C@H](C(=O)N[C@@H](C(=O)O)[C@@H](C(=O)N[C@H]2C)C)CC(C)C)C)C)C
InChI: InChI=1S/C46H67N7O12/c1-24(2)21-35-44(60)52-38(46(63)64)28(6)40(56)47-29(7)41(57)49-33(18-17-25(3)22-26(4)36(65-11)23-32-15-13-12-14-16-32)27(5)39(55)50-34(45(61)62)19-20-37(54)53(10)31(9)43(59)48-30(8)42(58)51-35/h12-18,22,24,26-30,33-36,38H,9,19-21,23H2,1-8,10-11H3,(H,47,56)(H,48,59)(H,49,57)(H,50,55)(H,51,58)(H,52,60)(H,61,62)(H,63,64)/b18-17+,25-22+/t26-,27-,28-,29-,30+,33-,34+,35-,36-,38+/m0/s1
Instrument: Q Exactive Orbitrap Thermo Scientific
Instrument type: LC-ESI-QFT
Ms type: MS2
Ion mode: NEGATIVE
Ionization: ESI
Fragmentation mode: HCD
Collision energy: 30 (nominal)
Resolution: 35000
Column name: XBridge C18 3.5um, 2.1x50mm, Waters
Retention time: 12.1 min
Base peak: 908.4785
Precursor m/z: 908.4775
Precursor type: [M-H]-
m/z	relative intensity	assigned
72.0455	4	C3H6NO-
73.0295	5	C3H5O2-
74.0248	7	C2H4NO2-
82.0298	5	C4H4NO-
84.0455	14	C4H6NO-
86.0249	2	C3H4NO2-
87.0564	6	C3H7N2O-
88.0404	5	C3H6NO2-
96.0455	3	C5H6NO-
97.0408	5	C4H5N2O-
98.0247	3	C4H4NO2-
98.0611	5	C5H8NO-
99.0564	17	C4H7N2O-
100.004	4	C3H2NO3-
100.0404	18	C4H6NO2-
109.0407	1	C5H5N2O-
110.0248	17	C5H4NO2-
110.0611	1	C6H8NO-
111.0089	1	C5H3O3-
111.0564	4	C5H7N2O-
112.0404	11	C5H6NO2-
113.0357	18	C4H5N2O2-
122.061	1	C7H8NO-
123.0327	1	C6H5NO2-
123.0564	11	C6H7N2O-
124.0403	48	C6H6NO2-
125.0246	2	C6H5O3-
125.0357	1	C5H5N2O2-
125.0721	8	C6H9N2O-
127.0513	14	C5H7N2O2-
127.0878	3	C6H11N2O-
128.0353	999	C5H6NO3-
129.0387	15	H7N3O5-
129.0669	3	C5H9N2O2-
129.1033	23	C6H13N2O-
130.0508	7	C5H8NO3-
130.0872	7	C6H12NO2-
131.0866	9	C10H11-
135.0563	2	C7H7N2O-
136.0406	1	C7H6NO2-
137.072	17	C7H9N2O-
138.056	19	C7H8NO2-
139.0514	2	C6H7N2O2-
139.0876	14	C7H11N2O-
140.0718	7	C7H10NO2-
141.0671	3	C6H9N2O2-
142.0509	4	C6H8NO3-
143.0824	1	C6H11N2O2-
145.0616	2	C5H9N2O3-
149.0719	1	C8H9N2O-
150.0557	3	C8H8NO2-
151.0875	1	C8H11N2O-
152.0716	1	C8H10NO2-
153.0668	38	C7H9N2O2-
155.0825	22	C7H11N2O2-
163.0511	7	C8H7N2O2-
164.0352	1	C8H6NO3-
165.0669	5	C8H9N2O2-
165.1032	22	C9H13N2O-
166.0872	2	C9H12NO2-
167.0825	10	C8H11N2O2-
167.1188	1	C9H15N2O-
170.0935	12	C7H12N3O2-
171.0773	5	C7H11N2O3-
171.1127	4	C6H13N5O-
177.0667	2	C9H9N2O2-
177.1031	1	C10H13N2O-
179.119	3	C10H15N2O-
180.078	3	C8H10N3O2-
180.1029	2	C10H14NO2-
180.1142	3	C9H14N3O-
181.0618	33	C8H9N2O3-
182.0462	3	C8H8NO4-
182.1297	9	C9H16N3O-
183.0774	1	C8H11N2O3-
183.1137	3	C9H15N2O2-
184.0615	13	C8H10NO4-
185.1295	1	C9H17N2O2-
195.1139	2	C10H15N2O2-
198.0881	4	C8H12N3O3-
198.1246	3	C9H16N3O2-
200.1404	26	C9H18N3O2-
205.0982	2	C11H13N2O2-
211.0725	5	C9H11N2O4-
212.1401	5	C10H18N3O2-
226.1198	3	C10H16N3O3-
