Mass spectrum: Microcystin-RR; LC-ESI-QFT; MS2; CE: 60; R=35000; [M-H]-
Name: Microcystin-RR
Name: (5R,8R,11R,12S,15S,18S,19S,22R)-8,15-bis[3-(diaminomethylideneamino)propyl]-18-[(1E,3E,5S,6S)-6-methoxy-3,5-dimethyl-7-phenylhepta-1,3-dienyl]-1,5,12,19-tetramethyl-2-methylidene-3,6,9,13,16,20,25-heptaoxo-1,4,7,10,14,17,21-heptazacyclopentacosane-11,22-dicarboxylic acid
Formula: C49H75N13O12
Exact mass: 1037.56581
SMILES: O=C2N[C@@H](\C=C\C(=C\[C@H](C)[C@@H](OC)Cc1ccccc1)C)[C@@H](C(=O)N[C@@H](C(=O)O)CCC(=O)N(/C(=C)C(=O)N[C@@H](C(=O)N[C@@H](C(=O)N[C@@H](C(=O)O)[C@@H](C(=O)N[C@H]2CCC/N=C(\N)N)C)CCC/N=C(\N)N)C)C)C
InChI: InChI=1S/C49H75N13O12/c1-26(24-27(2)37(74-8)25-32-14-10-9-11-15-32)18-19-33-28(3)40(64)60-36(46(70)71)20-21-38(63)62(7)31(6)43(67)56-30(5)42(66)59-35(17-13-23-55-49(52)53)45(69)61-39(47(72)73)29(4)41(65)58-34(44(68)57-33)16-12-22-54-48(50)51/h9-11,14-15,18-19,24,27-30,33-37,39H,6,12-13,16-17,20-23,25H2,1-5,7-8H3,(H,56,67)(H,57,68)(H,58,65)(H,59,66)(H,60,64)(H,61,69)(H,70,71)(H,72,73)(H4,50,51,54)(H4,52,53,55)/b19-18+,26-24+/t27-,28-,29-,30+,33-,34-,35+,36+,37-,39+/m0/s1
Instrument: Q Exactive Orbitrap Thermo Scientific
Instrument type: LC-ESI-QFT
Ms type: MS2
Ion mode: NEGATIVE
Ionization: ESI
Fragmentation mode: HCD
Collision energy: 60 (nominal)
Resolution: 35000
Column name: XBridge C18 3.5um, 2.1x50mm, Waters
Retention time: 9.1 min
Base peak: 1036.5585
Precursor m/z: 1036.5585
Precursor type: [M-H]-
m/z	relative intensity	assigned
72.0092	16	C2H2NO2-
72.0455	77	C3H6NO-
73.0295	35	C3H5O2-
74.0247	101	C2H4NO2-
80.0505	4	C5H6N-
81.0221	4	C4H3NO-
81.0459	15	C4H5N2-
82.0173	6	C3H2N2O-
82.0298	73	C4H4NO-
83.0614	30	C4H7N2-
84.0455	124	C4H6NO-
85.0408	29	C3H5N2O-
86.0248	5	C3H4NO2-
86.0613	5	C4H8NO-
87.0564	144	C3H7N2O-
88.0405	23	C3H6NO2-
92.0507	6	C6H6N-
93.0459	4	C5H5N2-
94.03	9	C5H4NO-
94.0663	7	C6H8N-
95.0251	12	C4H3N2O-
96.0329	7	C4H4N2O-
96.0455	46	C5H6NO-
97.0408	35	C4H5N2O-
97.0773	3	C5H9N2-
98.0247	30	C4H4NO2-
98.0611	29	C5H8NO-
99.0564	274	C4H7N2O-
100.0041	6	C3H2NO3-
100.0404	20	C4H6NO2-
101.0721	15	C4H9N2O-
102.0561	15	C4H8NO2-
106.0662	2	C7H8N-
107.0616	4	C6H7N2-
108.0219	3	C6H4O2-
108.0329	34	C5H4N2O-
108.0455	19	C6H6NO-
108.0566	5	C5H6N3-
108.0818	8	C7H10N-
109.017	14	C5H3NO2-
109.0408	53	C5H5N2O-
109.0772	30	C6H9N2-
110.0248	480	C5H4NO2-
110.0723	43	C5H8N3-
111.0201	46	C4H3N2O2-
111.0564	50	C5H7N2O-
112.0404	154	C5H6NO2-
112.0768	17	C6H10NO-
112.0881	16	C5H10N3-
113.0357	129	C4H5N2O2-
113.0721	117	C5H9N2O-
115.0879	4	C5H11N2O-
118.0667	2	C8H8N-
120.0457	3	C7H6NO-
121.0408	9	C6H5N2O-
121.0533	5	C7H7NO-
122.0249	5	C6H4NO2-
122.0487	16	C6H6N2O-
122.0612	30	C7H8NO-
122.0977	41	C8H12N-
123.0327	20	C6H5NO2-
123.044	6	C5H5N3O-
123.0565	75	C6H7N2O-
124.0404	201	C6H6NO2-
124.0767	12	C7H10NO-
125.0356	38	C5H5N2O2-
125.0595	16	C5H7N3O-
125.0721	67	C6H9N2O-
126.056	14	C6H8NO2-
127.0514	97	C5H7N2O2-
127.0878	30	C6H11N2O-
128.0354	999	C5H6NO3-
129.0669	5	C5H9N2O2-
130.0985	343	C5H12N3O-
131.0826	64	C5H11N2O2-
131.0867	32	C10H11-
135.0327	5	C7H5NO2-
135.0564	40	C7H7N2O-
136.0405	16	C7H6NO2-
136.0516	21	C6H6N3O-
136.0642	13	C7H8N2O-
136.0767	15	C8H10NO-
137.072	249	C7H9N2O-
138.0434	57	C6H6N2O2-
138.0559	53	C7H8NO2-
138.0673	14	C6H8N3O-
139.0513	26	C6H7N2O2-
139.0752	4	C6H9N3O-
139.0876	31	C7H11N2O-
140.0716	15	C7H10NO2-
140.083	238	C6H10N3O-
141.0671	19	C6H9N2O2-
141.1033	19	C7H13N2O-
147.0454	12	C9H7O2-
148.088	3	C8H10N3-
149.0719	81	C8H9N2O-
150.0559	113	C8H8NO2-
151.051	5	C7H7N2O2-
151.0874	24	C8H11N2O-
152.036	3	C7H6NO3-
152.0716	13	C8H10NO2-
152.0829	51	C7H10N3O-
153.0669	184	C7H9N2O2-
153.1034	22	C8H13N2O-
154.0621	4	C6H8N3O2-
154.0986	80	C7H12N3O-
155.0828	13	C7H11N2O2-
155.0938	20	C6H11N4O-
156.0778	131	C6H10N3O2-
156.1142	79	C7H14N3O-
158.1298	20	C7H16N3O-
161.0719	3	C9H9N2O-
163.0876	51	C9H11N2O-
164.0592	3	C8H8N2O2-
164.0717	20	C9H10NO2-
164.0828	6	C8H10N3O-
165.0671	22	C8H9N2O2-
165.0778	6	C7H9N4O-
165.1033	5	C9H13N2O-
166.0985	731	C8H12N3O-
167.0825	78	C8H11N2O2-
168.1141	72	C8H14N3O-
169.0983	7	C8H13N2O2-
170.0934	95	C7H12N3O2-
170.1299	20	C8H16N3O-
171.1178	20	C13H15-
172.1092	12	C7H14N3O2-
172.1206	15	C6H14N5O-
177.0668	5	C9H9N2O2-
177.1033	5	C10H13N2O-
178.0984	16	C9H12N3O-
180.078	15	C8H10N3O2-
180.1142	64	C9H14N3O-
181.0983	85	C9H13N2O2-
181.1095	181	C8H13N4O-
182.0935	41	C8H12N3O2-
182.1049	3	C7H12N5O-
183.125	399	C8H15N4O-
184.1091	120	C8H14N3O2-
186.1247	12	C8H16N3O2-
191.0938	19	C9H11N4O-
193.0732	6	C8H9N4O2-
193.1095	3	C9H13N4O-
194.1297	4	C10H16N3O-
195.125	18	C9H15N4O-
196.1089	12	C9H14N3O2-
197.141	6	C9H17N4O-
198.1247	18	C9H16N3O2-
198.1353	7	C8H16N5O-
199.12	40	C8H15N4O2-
201.1357	201	C8H17N4O2-
206.0933	18	C10H12N3O2-
206.1296	5	C11H16N3O-
207.0772	5	C10H11N2O3-
208.0967	7	C9H12N4O2-
208.1203	60	C9H14N5O-
209.1046	33	C9H13N4O2-
210.0884	4	C9H12N3O3-
213.1356	11	C9H17N4O2-
223.12	15	C10H15N4O2-
223.1307	6	C9H15N6O-
223.1567	4	C11H19N4O-
225.1471	5	C9H17N6O-
226.1303	3	C9H16N5O2-
227.1153	7	C9H15N4O3-
239.1512	12	C11H19N4O2-
241.1415	3	C9H17N6O2-
241.1673	4	C11H21N4O2-
266.1623	78	C12H20N5O2-
284.1728	3	C12H22N5O3-
