Mass spectrum: Kaempferitrin; LC-ESI-QTOF; MS2; CE:Ramp 5-60 V; [M-H]-
Name: Kaempferol-3,7-O-bis-alpha-L-rhamnoside
Name: Kaempferol-3,7-O-di-rhamnopyranoside
Name: Kaempferol-3-Rhamnoside-7-Rhamnoside
Name: Kaem-3-Rha-7-Rha
Name: Kaempferitrin
Class: Flavonoid
Formula: C27H30O14
Exact mass: 578.16356
SMILES: C(C1O)(C)OC(Oc(c5)cc(O2)c(c5O)C(C(OC(O4)C(C(C(C4C)O)O)O)=C(c(c3)ccc(O)c3)2)=O)C(C1O)O
InChI: InChI=1S/C27H30O14/c1-9-17(30)20(33)22(35)26(37-9)39-13-7-14(29)16-15(8-13)40-24(11-3-5-12(28)6-4-11)25(19(16)32)41-27-23(36)21(34)18(31)10(2)38-27/h3-10,17-18,20-23,26-31,33-36H,1-2H3/t9-,10-,17-,18-,20+,21+,22+,23+,26-,27-/m0/s1
Instrument: UPLC Q-Tof Premier, Waters
Instrument type: LC-ESI-QTOF
Ms type: MS2
Ion mode: NEGATIVE
Collision energy: Ramp 5-60 V
Ionization: ESI
Precursor m/z: 577.15573
Precursor type: [M-H]-
m/z	relative intensity
255.0308	260
283.0257	688
285.0417	999
430.0936	225
431.1003	481
577.1557	773
578.1650	162
