Mass spectrum: Man5GlcNAc-VI; LC-ESI-QQ; MS2; CE:50V; ODS
Name: Man5GlcNAc-VI
Name: Man-alpha-1-6(Man-alpha-1-2Man-alpha-1-2Man-alpha-1-3)Man-beta-1-9GlcNAc
Class: Natural Product; Oligosaccharide; N-linked glycan; High-mannose type
Formula: C38H65NO31
Exact mass: 1031.35405
SMILES: C(C(COC(C6O)OC(C(C(O)6)O)CO)5)(C(C(O)C(O5)OC(C(CO)4)C(C(C(O)O4)NC(C)=O)O)OC(C1OC(C2OC(O3)C(O)C(C(O)C3CO)O)OC(C(C(O)2)O)CO)OC(C(O)C(O)1)CO)O
InChI: InChI=1/C38H65NO31/c1-8(45)39-15-21(51)29(13(6-44)61-33(15)59)67-36-28(58)30(20(50)14(66-36)7-60-34-26(56)22(52)16(46)9(2-40)62-34)68-37-32(25(55)19(49)11(4-42)64-37)70-38-31(24(54)18(48)12(5-43)65-38)69-35-27(57)23(53)17(47)10(3-41)63-35/h9-38,40-44,46-59H,2-7H2,1H3,(H,39,45)/t9-,10-,11-,12-,13-,14-,15-,16-,17-,18-,19-,20-,21-,22+,23+,24+,25+,26+,27+,28+,29-,30+,31+,32+,33-,34+,35-,36+,37-,38-/m1/s1/f/h39H
Instrument: 2695 HPLC Quadro Micro API, Waters
Instrument type: LC-ESI-QQ
Ms type: MS2
Ion mode: POSITIVE
Collision energy: 50.0 V
Ionization: ESI
Column name: Wakosil 5C18-200 2.0 mm X 250 mm (Wako)
Retention time: 20.641 min
Derivative form: C47H76N2O32
Derivative mass: 1180.43812
Derivative type: ABEE (p-Aminobenzoic acid ethyl ester)
Precursor m/z: 1181.02
Precursor type: [M+H]+
m/z	relative intensity
325.0	163
326.0	83
353.8	67
370.3	184
371.0	999
371.9	281
