Mass spectrum: Microcystin-YR; LC-ESI-QFT; MS2; CE: 45; R=35000; [M+H]+
Name: Microcystin-YR
Name: (5R,8S,11R,12R,15S,18S,19S,22R)-15-[3-(diaminomethylideneamino)propyl]-8-[(4-hydroxyphenyl)methyl]-18-[(1E,3E,5S,6S)-6-methoxy-3,5-dimethyl-7-phenylhepta-1,3-dienyl]-1,5,12,19-tetramethyl-2-methylidene-3,6,9,13,16,20,25-heptaoxo-1,4,7,10,14,17,21-heptazacyclopentacosane-11,22-dicarboxylic acid
Formula: C52H72N10O13
Exact mass: 1044.52803
SMILES: O=C2N[C@@H](\C=C\C(=C\[C@H](C)[C@@H](OC)Cc1ccccc1)C)[C@@H](C(=O)N[C@@H](C(=O)O)CCC(=O)N(/C(=C)C(=O)N[C@@H](C(=O)N[C@H](C(=O)N[C@@H](C(=O)O)[C@H](C(=O)N[C@H]2CCC/N=C(\N)N)C)Cc3ccc(O)cc3)C)C)C
InChI: InChI=1S/C52H72N10O13/c1-28(25-29(2)41(75-8)27-34-13-10-9-11-14-34)16-21-37-30(3)44(65)59-39(50(71)72)22-23-42(64)62(7)33(6)47(68)56-32(5)46(67)60-40(26-35-17-19-36(63)20-18-35)49(70)61-43(51(73)74)31(4)45(66)58-38(48(69)57-37)15-12-24-55-52(53)54/h9-11,13-14,16-21,25,29-32,37-41,43,63H,6,12,15,22-24,26-27H2,1-5,7-8H3,(H,56,68)(H,57,69)(H,58,66)(H,59,65)(H,60,67)(H,61,70)(H,71,72)(H,73,74)(H4,53,54,55)/b21-16+,28-25+/t29-,30-,31+,32+,37-,38-,39+,40-,41-,43+/m0/s1
Instrument: Q Exactive Orbitrap Thermo Scientific
Instrument type: LC-ESI-QFT
Ms type: MS2
Ion mode: POSITIVE
Ionization: ESI
Fragmentation mode: HCD
Collision energy: 45 (nominal)
Resolution: 35000
Column name: XBridge C18 3.5um, 2.1x50mm, Waters
Retention time: 9.9 min
Base peak: 523.2715
Precursor m/z: 1045.5353
Precursor type: [M+H]+
m/z	relative intensity	assigned
73.0634	1	C2H7N3+
74.0601	4	C3H8NO+
74.0965	1	C4H12N+
77.0384	12	C6H5+
79.0542	46	C6H7+
80.0495	5	C5H6N+
81.0699	3	C6H9+
82.0288	9	C4H4NO+
82.0651	21	C5H8N+
83.0604	1	C4H7N2+
84.0444	150	C4H6NO+
85.0283	1	C4H5O2+
85.076	8	C4H9N2+
86.0601	6	C4H8NO+
87.0791	15	C3H9N3+
91.0542	147	C7H7+
93.0699	98	C7H9+
94.0651	7	C6H8N+
95.0491	60	C6H7O+
95.0604	17	C5H7N2+
95.0856	10	C7H11+
96.0443	1	C5H6NO+
96.0808	5	C6H10N+
97.076	43	C5H9N2+
98.0601	37	C5H8NO+
99.0189	4	C3H3N2O2+
99.0917	28	C5H11N2+
100.0757	4	C5H10NO+
100.087	2	C4H10N3+
101.0709	1	C4H9N2O+
102.0465	4	C8H6+
102.055	17	C4H8NO2+
103.0542	305	C8H7+
105.0699	270	C8H9+
107.0855	481	C8H11+
108.0809	3	C7H10N+
109.0648	17	C7H9O+
109.101	1	C8H13+
110.0235	2	C5H4NO2+
110.06	12	C6H8NO+
110.0714	1	C5H8N3+
110.0966	1	C7H12N+
111.0552	1	C5H7N2O+
111.0916	1	C6H11N2+
112.0869	267	C5H10N3+
113.0233	3	C5H5O3+
113.0709	48	C5H9N2O+
114.0549	5	C5H8NO2+
114.1026	44	C5H12N3+
115.0543	46	C9H7+
115.0866	146	C5H11N2O+
116.0621	1	C9H8+
116.0708	5	C5H10NO2+
117.0699	117	C9H9+
118.0651	2	C8H8N+
119.0492	36	C8H7O+
119.0605	3	C7H7N2+
119.0855	20	C9H11+
120.0569	7	C8H8O+
120.0808	31	C8H10N+
120.0932	2	C9H12+
121.0648	5	C8H9O+
121.076	5	C7H9N2+
121.1011	10	C9H13+
122.0598	2	C7H8NO+
122.0713	2	C6H8N3+
122.0965	7	C8H12N+
123.0554	1	C6H7N2O+
123.0804	4	C8H11O+
123.0917	2	C7H11N2+
124.0757	13	C7H10NO+
124.087	1	C6H10N3+
124.1121	26	C8H14N+
125.0712	7	C6H9N2O+
126.0549	2	C6H8NO2+
126.066	3	C5H8N3O+
126.0913	1	C7H12NO+
127.0866	522	C6H11N2O+
128.0621	2	C10H8+
128.0707	11	C6H10NO2+
128.082	1	C5H10N3O+
129.066	2	C5H9N2O2+
129.0698	9	C10H9+
129.1134	1	C5H13N4+
130.0499	29	C5H8NO3+
130.0652	2	C9H8N+
130.0777	1	C10H10+
130.0975	25	C5H12N3O+
131.0855	31	C10H11+
132.0807	4	C9H10N+
132.1132	1	C5H14N3O+
133.0649	1	C9H9O+
133.1012	17	C10H13+
134.0967	1	C9H12N+
135.0804	999	C9H11O+
135.1167	342	C10H15+
136.0756	577	C8H10NO+
137.0705	1	C7H9N2O+
137.1074	1	C8H13N2+
138.0548	67	C7H8NO2+
138.0661	5	C6H8N3O+
139.0866	11	C7H11N2O+
139.0977	24	C6H11N4+
140.0706	9	C7H10NO2+
140.0817	82	C6H10N3O+
141.0657	81	C6H9N2O2+
142.0975	1	C6H12N3O+
143.0857	15	C11H11+
145.1012	25	C11H13+
146.0602	2	C9H8NO+
146.0964	8	C10H12N+
146.1091	3	C11H14+
147.044	13	C9H7O2+
147.0758	8	C5H11N2O3+
147.1168	4	C11H15+
148.0758	3	C9H10NO+
149.071	22	C8H9N2O+
150.0551	1	C8H8NO2+
150.0913	3	C9H12NO+
150.1028	2	C8H12N3+
150.1277	1	C10H16N+
151.0865	9	C8H11N2O+
151.1106	1	C8H13N3+
152.0705	10	C8H10NO2+
152.1182	11	C8H14N3+
153.1024	16	C8H13N2O+
154.0865	1	C8H12NO2+
155.0814	257	C7H11N2O2+
156.1244	23	C6H14N5+
157.1083	145	C6H13N4O+
158.0922	49	C6H12N3O2+
159.1166	7	C12H15+
160.0757	1	C10H10NO+
160.1121	5	C11H14N+
161.0962	19	C11H13O+
161.1323	3	C12H17+
162.0912	2	C10H12NO+
162.1024	7	C9H12N3+
162.1278	10	C11H16N+
163.1116	162	C11H15O+
164.0705	6	C9H10NO2+
164.082	1	C8H10N3O+
164.1068	1	C10H14NO+
164.1184	6	C9H14N3+
165.1023	4	C9H13N2O+
166.0863	2	C9H12NO2+
166.0977	2	C8H12N3O+
167.0813	107	C8H11N2O2+
168.0653	14	C8H10NO3+
168.1131	1	C8H14N3O+
169.0967	4	C8H13N2O2+
170.081	1	C8H12NO3+
171.0801	1	C12H11O+
171.1123	7	C8H15N2O2+
171.1174	4	C13H15+
172.0716	6	C6H10N3O3+
172.112	17	C12H14N+
173.0961	7	C12H13O+
174.1349	96	C6H16N5O+
175.1188	31	C6H15N4O2+
176.071	1	C10H10NO2+
176.1071	6	C11H14NO+
177.1135	1	C9H13N4+
178.0973	12	C9H12N3O+
178.1225	5	C11H16NO+
179.1291	1	C9H15N4+
180.0931	1	C14H12+
180.113	10	C9H14N3O+
180.1382	2	C11H18NO+
181.0971	8	C9H13N2O2+
181.1018	5	H15N5O6+
182.0814	7	C9H12NO3+
182.1036	41	C7H12N5O+
183.0877	59	C7H11N4O2+
184.0717	1	C7H10N3O3+
185.092	2	C8H13N2O3+
186.076	2	C8H12NO4+
186.0913	6	C12H12NO+
187.1117	5	C13H15O+
188.0705	1	C11H10NO2+
188.107	9	C12H14NO+
190.0973	4	C10H12N3O+
190.1224	6	C12H16NO+
190.1593	2	C13H20N+
191.0814	6	C10H11N2O2+
193.06	1	C9H9N2O3+
193.0971	6	C10H13N2O2+
194.1087	1	C15H14+
195.0762	89	C9H11N2O3+
195.1169	12	C15H15+
195.1237	9	C9H15N4O+
196.0601	23	C9H10NO4+
196.1077	15	C9H14N3O2+
197.1073	1	C13H13N2+
197.1396	3	C9H17N4O+
198.1235	18	C9H16N3O2+
199.1075	6	C9H15N2O3+
200.114	189	C7H14N5O2+
201.0979	66	C7H13N4O3+
202.0863	2	C12H12NO2+
203.1177	6	C12H15N2O+
204.1021	1	C12H14NO2+
204.1382	5	C13H18NO+
205.1336	1	C12H17N2O+
206.0922	11	C10H12N3O2+
207.1126	24	C11H15N2O2+
208.108	20	C10H14N3O2+
209.0919	13	C10H13N2O3+
209.1323	16	C16H17+
210.1243	1	C10H16N3O2+
210.1346	1	C9H16N5O+
211.0714	18	C9H11N2O4+
212.1509	8	C9H18N5O+
213.0868	362	C9H13N2O4+
213.1344	33	C9H17N4O2+
214.0708	2	C8H6N8+
214.1336	4	C13H16N3+
216.1489	1	C13H18N3+
217.1333	9	C13H17N2O+
218.1541	26	C14H20NO+
219.1133	1	C12H15N2O2+
220.1078	3	C11H14N3O2+
221.0918	4	C11H13N2O3+
221.1283	5	C12H17N2O2+
221.165	1	C13H21N2O+
222.1341	1	C10H16N5O+
223.1078	7	C11H15N2O3+
223.1188	35	C10H15N4O2+
224.1031	17	C10H14N3O3+
225.1346	31	C10H17N4O2+
226.1185	81	C10H16N3O3+
226.1589	26	C16H20N+
227.103	10	C10H15N2O4+
229.1324	1	C12H15N5+
230.0815	1	C13H12NO3+
231.1127	23	C13H15N2O2+
232.0968	1	C13H14NO3+
233.0918	7	C12H13N2O3+
235.1075	5	C12H15N2O3+
237.1635	24	C18H21+
239.066	71	C9H5N9+
239.1026	5	C11H15N2O4+
240.1453	13	C10H18N5O2+
241.1295	17	C10H17N4O3+
242.1285	2	C14H16N3O+
242.1611	1	C10H20N5O2+
243.1451	6	C10H19N4O3+
244.1292	23	C10H18N3O4+
246.1488	21	C15H20NO2+
247.1077	19	C13H15N2O3+
248.1641	1	C15H22NO2+
249.1229	1	C13H17N2O3+
250.1302	1	C11H16N5O2+
251.1011	1	C10H13N5O3+
251.1138	17	C11H15N4O3+
252.0973	4	C11H14N3O4+
254.1901	6	C18H24N+
257.1716	5	C10H21N6O2+
258.1234	4	C14H16N3O2+
258.156	14	C10H20N5O3+
259.1075	22	C14H15N2O3+
260.1388	1	C14H18N3O2+
263.1868	19	C14H23N4O+
264.1597	2	C15H22NO3+
264.1733	3	C3H22N9O5+
265.1585	11	C19H21O+
266.1129	4	C12H16N3O4+
267.0973	2	C11H9N9+
267.1558	7	C11H19N6O2+
268.1401	18	C11H18N5O3+
269.112	8	C11H11N9+
269.1243	41	C11H17N4O4+
272.1392	5	C15H18N3O2+
275.1025	2	C14H15N2O4+
280.2128	22	C14H26N5O+
285.1667	25	C11H21N6O3+
286.1507	16	C11H20N5O4+
292.1287	3	C14H18N3O4+
292.1543	2	C16H22NO4+
293.1131	20	C13H11N9+
300.1343	6	C16H18N3O3+
303.1777	15	C11H23N6O4+
309.1591	6	C3H21N10O7+
314.1459	5	C12H20N5O5+
318.1082	2	C14H10N10+
318.1446	5	C16H20N3O4+
318.2287	4	C17H28N5O+
328.1655	2	C18H22N3O3+
329.1859	5	C19H25N2O3+
347.1961	11	
370.1392	4	C18H14N10+
375.1913	16	C19H21N9+
432.1871	6	C34H24+
449.2133	2	C19H33N2O10+
452.3017	5	C26H38N5O2+
469.3287	6	C26H41N6O2+
