Mass spectrum: Microcystin-YR; LC-ESI-QFT; MS2; CE: 90; R=35000; [M+H]+
Name: Microcystin-YR
Name: (5R,8S,11R,12R,15S,18S,19S,22R)-15-[3-(diaminomethylideneamino)propyl]-8-[(4-hydroxyphenyl)methyl]-18-[(1E,3E,5S,6S)-6-methoxy-3,5-dimethyl-7-phenylhepta-1,3-dienyl]-1,5,12,19-tetramethyl-2-methylidene-3,6,9,13,16,20,25-heptaoxo-1,4,7,10,14,17,21-heptazacyclopentacosane-11,22-dicarboxylic acid
Formula: C52H72N10O13
Exact mass: 1044.52803
SMILES: O=C2N[C@@H](\C=C\C(=C\[C@H](C)[C@@H](OC)Cc1ccccc1)C)[C@@H](C(=O)N[C@@H](C(=O)O)CCC(=O)N(/C(=C)C(=O)N[C@@H](C(=O)N[C@H](C(=O)N[C@@H](C(=O)O)[C@H](C(=O)N[C@H]2CCC/N=C(\N)N)C)Cc3ccc(O)cc3)C)C)C
InChI: InChI=1S/C52H72N10O13/c1-28(25-29(2)41(75-8)27-34-13-10-9-11-14-34)16-21-37-30(3)44(65)59-39(50(71)72)22-23-42(64)62(7)33(6)47(68)56-32(5)46(67)60-40(26-35-17-19-36(63)20-18-35)49(70)61-43(51(73)74)31(4)45(66)58-38(48(69)57-37)15-12-24-55-52(53)54/h9-11,13-14,16-21,25,29-32,37-41,43,63H,6,12,15,22-24,26-27H2,1-5,7-8H3,(H,56,68)(H,57,69)(H,58,66)(H,59,65)(H,60,67)(H,61,70)(H,71,72)(H,73,74)(H4,53,54,55)/b21-16+,28-25+/t29-,30-,31+,32+,37-,38-,39+,40-,41-,43+/m0/s1
Instrument: Q Exactive Orbitrap Thermo Scientific
Instrument type: LC-ESI-QFT
Ms type: MS2
Ion mode: POSITIVE
Ionization: ESI
Fragmentation mode: HCD
Collision energy: 90 (nominal)
Resolution: 35000
Column name: XBridge C18 3.5um, 2.1x50mm, Waters
Retention time: 9.9 min
Base peak: 523.2715
Precursor m/z: 1045.5353
Precursor type: [M+H]+
m/z	relative intensity	assigned
73.0634	1	C2H7N3+
74.0149	1	C6H2+
74.0237	2	C2H4NO2+
74.0601	1	C3H8NO+
74.0965	1	C4H12N+
77.0386	61	C6H5+
78.0339	1	C5H4N+
78.0465	1	C6H6+
79.0543	142	C6H7+
80.0495	30	C5H6N+
81.0335	9	C5H5O+
81.0448	3	C4H5N2+
81.0574	2	C5H7N+
81.0699	5	C6H9+
82.0288	23	C4H4NO+
82.0652	51	C5H8N+
83.0604	4	C4H7N2+
84.0444	98	C4H6NO+
85.0285	15	C4H5O2+
85.0761	10	C4H9N2+
86.06	10	C4H8NO+
87.0792	1	C3H9N3+
89.0386	4	C7H5+
91.0542	684	C7H7+
92.0496	1	C6H6N+
92.0621	10	C7H8+
93.0572	5	C6H7N+
93.0699	54	C7H9+
94.0287	1	C5H4NO+
94.0413	4	C6H6O+
94.0651	17	C6H8N+
94.0778	1	C7H10+
95.0492	466	C6H7O+
95.0603	26	C5H7N2+
96.0444	11	C5H6NO+
96.0682	1	C5H8N2+
96.0808	6	C6H10N+
97.076	38	C5H9N2+
98.0601	50	C5H8NO+
99.0189	15	C3H3N2O2+
99.0679	1	C5H9NO+
99.0917	27	C5H11N2+
100.0758	3	C5H10NO+
102.0465	35	C8H6+
102.0549	2	C4H8NO2+
103.0543	999	C8H7+
104.0576	4	C3H8N2O2+
104.0618	2	C8H8+
105.0448	71	C6H5N2+
105.0699	283	C8H9+
106.0526	5	C6H6N2+
106.0652	4	C7H8N+
107.0492	40	C7H7O+
107.0855	123	C8H11+
108.0444	1	C6H6NO+
108.0682	5	C6H8N2+
108.0807	6	C7H10N+
109.0648	45	C7H9O+
110.0238	1	C5H4NO2+
110.0601	9	C6H8NO+
110.0712	1	C5H8N3+
111.0554	3	C5H7N2O+
111.0918	1	C6H11N2+
112.0393	1	C5H6NO2+
112.087	28	C5H10N3+
113.0234	18	C5H5O3+
113.071	10	C5H9N2O+
114.0549	5	C5H8NO2+
114.1027	2	C5H12N3+
115.0543	135	C9H7+
115.0867	10	C5H11N2O+
116.062	10	C9H8+
117.0573	6	C8H7N+
117.0699	52	C9H9+
118.0651	11	C8H8N+
119.0492	64	C8H7O+
119.0604	12	C7H7N2+
119.0856	12	C9H11+
120.053	1	C3H8N2O3+
120.057	20	C8H8O+
120.0808	14	C8H10N+
120.0935	5	C9H12+
121.0761	37	C7H9N2+
122.0601	5	C7H8NO+
122.0714	3	C6H8N3+
122.084	5	C7H10N2+
122.0966	3	C8H12N+
123.0553	1	C6H7N2O+
123.0918	7	C7H11N2+
124.0395	1	C6H6NO2+
124.0756	1	C7H10NO+
125.0711	3	C6H9N2O+
127.0866	86	C6H11N2O+
128.0343	1	C5H6NO3+
128.0621	17	C10H8+
129.0699	9	C10H9+
130.0499	4	C5H8NO3+
130.0651	6	C9H8N+
130.0779	1	C10H10+
130.0976	1	C5H12N3O+
131.0728	1	C9H9N+
131.0856	12	C10H11+
132.0807	1	C9H10N+
133.0649	1	C9H9O+
133.1012	2	C10H13+
134.0602	1	C8H8NO+
134.0965	4	C9H12N+
135.0804	23	C9H11O+
135.1167	5	C10H15+
136.0757	64	C8H10NO+
137.071	1	C7H9N2O+
137.1071	1	C8H13N2+
138.0547	2	C7H8NO2+
138.0661	1	C6H8N3O+
139.0865	3	C7H11N2O+
140.0703	1	C7H10NO2+
140.0816	1	C6H10N3O+
141.0657	8	C6H9N2O2+
143.0731	1	C10H9N+
143.0856	1	C11H11+
144.0809	3	C10H10N+
145.0649	5	C10H9O+
145.1013	3	C11H13+
146.0603	4	C9H8NO+
146.0964	2	C10H12N+
147.0441	1	C9H7O2+
149.0709	14	C8H9N2O+
151.0866	4	C8H11N2O+
153.07	1	C12H9+
153.1024	1	C8H13N2O+
158.097	1	C11H12N+
159.0805	1	C11H11O+
160.0758	4	C10H10NO+
160.1119	1	C11H14N+
162.0549	3	C9H8NO2+
165.07	11	C13H9+
166.0777	3	C13H10+
167.0813	20	C8H11N2O2+
168.0656	1	C8H10NO3+
170.0967	3	C12H12N+
172.1122	1	C12H14N+
178.0777	3	C14H10+
179.0857	6	C14H11+
195.0765	4	C9H11N2O3+
