Mass spectrum: Capsaicin; LC-ESI-ITTOF; MS2; [M-H]-
Name: Capsaicin
Name: (6E)-N-[(4-Hydroxy-3-methoxyphenyl)methyl]-8-methyl-6-nonenamide
Name: (E)-8-Methyl-N-vanillyl-6-nonenamide
Name: (E)-N-[(4-Hydroxy-3-methoxyphenyl)methyl]-8-methyl-6-nonenamide
Name: (E)-N-(4-Hydroxy-3-methoxybenzyl)-8-methylnon-6-enamide
Name: Adlea
Name: Axsain
Name: Capsaicine
Name: Capsin P 50
Name: Capzasin-HP
Name: Dolenon
Name: E-Capsaicin
Name: Mioton
Name: N-(4-Oxy-3-methoxybenzyl)-8-methyl-6-nonenamide
Name: Togarashi Orenji
Name: Zostrix
Name: trans-8-Methyl-N-vanillyl-6-nonenamide
Class: Natural Product; capsaicinoid
Formula: C18H27NO3
Exact mass: 305.19909
SMILES: CC(C)C=CCCCCC(=O)NCc(c1)cc(OC)c(O)c1
InChI: InChI=1S/C18H27NO3/c1-14(2)8-6-4-5-7-9-18(21)19-13-15-10-11-16(20)17(12-15)22-3/h6,8,10-12,14,20H,4-5,7,9,13H2,1-3H3,(H,19,21)/b8-6+
Instrument: LCMS-IT-TOF
Instrument type: LC-ESI-ITTOF
Ms type: MS2
Ion mode: NEGATIVE
Column name: Waters Atlantis T3 (2.1 x 150 mm, 5 um)
Retention time: 22.088717 min
Base peak: 168.142000
Precursor m/z: 304.188600
m/z	relative intensity
152.037300	7
168.067300	23
168.142000	999
168.254200	16
168.366400	21
168.528500	13
169.140400	131
169.365400	4
170.141600	6
