Mass spectrum: cis-Zeatin; LC-ESI-QQ; MS2; CE:30.0 eV; [M+H]+
Name: cis-Zeatin
Name: (Z)-2-Methyl-4-(1H-purin-6-ylamino)but-2-en-1-ol
Formula: C10H13N5O
Exact mass: 219.11201
SMILES: C/C(=C/CNC1=NC=NC2=C1NC=N2)/CO
InChI: InChI=1S/C10H13N5O/c1-7(4-16)2-3-11-9-8-10(13-5-12-8)15-6-14-9/h2,5-6,16H,3-4H2,1H3,(H2,11,12,13,14,15)/b7-2-
Instrument: UPLC Waters, Quattro Ultima Pt Micromass
Instrument type: LC-ESI-QQ
Ms type: MS2
Ion mode: POSITIVE
Collision energy: 30.0 eV
Ionization: ESI
Column name: ACQUITY UPLC BEH C18 2.1 by 50 mm (Waters, Milford, MA, USA)
Retention time: 6.98 min
Full scan fragment ion peak: 219
Ion type: [M+H]+
Precursor m/z: 220
Precursor type: [M+H]+
m/z	relative intensity
64.744	13
66.730	85
91.858	63
93.797	54
104.510	29
108.922	17
118.345	44
118.947	612
120.526	18
127.164	20
131.497	18
134.494	19
135.192	66
135.909	999
146.382	12
147.880	38
156.168	16
157.627	10
158.543	10
159.214	13
173.116	11
174.553	12
185.064	58
