Mass spectrum: Microcystin-LF; LC-ESI-QFT; MS2; CE: 30; R=35000; [M+H]+
Name: Microcystin-LF
Name: 15-benzyl-18-[(1E,3E)-6-methoxy-3,5-dimethyl-7-phenylhepta-1,3-dienyl]-1,5,12,19-tetramethyl-2-methylidene-8-(2-methylpropyl)-3,6,9,13,16,20,25-heptaoxo-1,4,7,10,14,17,21-heptazacyclopentacosane-11,22-dicarboxylic acid
Formula: C52H71N7O12
Exact mass: 985.51607
SMILES: O=C(O)C2NC(=O)C(NC(=O)C(NC(=O)\C(=C)N(C(=O)CCC(C(=O)O)NC(=O)C(C)C(\C=C\C(=C\C(C)C(OC)Cc1ccccc1)C)NC(=O)C(NC(=O)C2C)Cc3ccccc3)C)C)CC(C)C
InChI: InChI=1S/C52H71N7O12/c1-29(2)25-40-50(66)58-44(52(69)70)33(6)46(62)56-41(27-36-17-13-11-14-18-36)49(65)54-38(22-21-30(3)26-31(4)42(71-10)28-37-19-15-12-16-20-37)32(5)45(61)55-39(51(67)68)23-24-43(60)59(9)35(8)48(64)53-34(7)47(63)57-40/h11-22,26,29,31-34,38-42,44H,8,23-25,27-28H2,1-7,9-10H3,(H,53,64)(H,54,65)(H,55,61)(H,56,62)(H,57,63)(H,58,66)(H,67,68)(H,69,70)/b22-21+,30-26+
Instrument: Q Exactive Orbitrap Thermo Scientific
Instrument type: LC-ESI-QFT
Ms type: MS2
Ion mode: POSITIVE
Ionization: ESI
Fragmentation mode: HCD
Collision energy: 30 (nominal)
Resolution: 35000
Column name: XBridge C18 3.5um, 2.1x50mm, Waters
Retention time: 14.0 min
Base peak: 986.5229
Precursor m/z: 986.5233
Precursor type: [M+H]+
m/z	relative intensity	assigned
69.0698	3	C5H9+
70.065	4	C4H8N+
74.0236	4	C2H4NO2+
74.0962	1	C4H12N+
79.0541	19	C6H7+
80.0494	1	C5H6N+
81.0697	1	C6H9+
82.065	12	C5H8N+
84.0442	89	C4H6NO+
86.0963	664	C5H12N+
91.054	108	C7H7+
93.0697	30	C7H9+
94.0649	2	C6H8N+
95.049	10	C6H7O+
95.0854	23	C7H11+
96.0806	6	C6H10N+
98.0599	4	C5H8NO+
99.0801	2	C6H11O+
99.0915	9	C5H11N2+
101.0708	1	C4H9N2O+
102.0548	21	C4H8NO2+
103.0541	67	C8H7+
104.0577	2	C3H8N2O2+
105.0697	89	C8H9+
107.0854	511	C8H11+
108.0807	5	C7H10N+
109.0647	8	C7H9O+
109.101	4	C8H13+
110.0599	13	C6H8NO+
110.0962	3	C7H12N+
112.0391	3	C5H6NO2+
112.0754	6	C6H10NO+
113.0708	1	C5H9N2O+
114.0547	1	C5H8NO2+
115.0541	9	C9H7+
115.0865	1	C5H11N2O+
117.0697	34	C9H9+
119.0853	17	C9H11+
120.0806	323	C8H10N+
121.0647	10	C8H9O+
121.1009	10	C9H13+
122.0595	1	C7H8NO+
122.0964	7	C8H12N+
123.0803	10	C8H11O+
123.0911	1	C7H11N2+
124.0755	25	C7H10NO+
124.1119	122	C8H14N+
126.0547	5	C6H8NO2+
127.0864	340	C6H11N2O+
128.0618	3	C10H8+
128.0703	6	C6H10NO2+
129.0696	11	C10H9+
130.0497	31	C5H8NO3+
130.0648	3	C9H8N+
131.0853	52	C10H11+
131.1178	13	C6H15N2O+
132.0807	1	C9H10N+
132.0886	3	C3H10N5O+
133.0647	5	C9H9O+
133.1009	20	C10H13+
134.0962	1	C9H12N+
134.1046	1	C5H14N2O2+
135.0803	952	C9H11O+
135.1164	439	C10H15+
136.0752	3	C8H10NO+
136.0834	55	C2H10N5O2+
136.1198	25	C3H14N5O+
137.0957	1	C9H13O+
138.0546	136	C7H8NO2+
139.0581	7	H7N6O3+
139.0865	3	C7H11N2O+
140.0702	16	C7H10NO2+
141.0697	1	C11H9+
141.1018	7	C7H13N2O+
143.0854	61	C11H11+
144.0888	3	C6H12N2O2+
145.101	36	C11H13+
146.0961	14	C10H12N+
146.109	2	C11H14+
147.0803	4	C10H11O+
147.0915	3	C9H11N2+
147.1167	8	C11H15+
148.075	1	C9H10NO+
149.0707	11	C8H9N2O+
149.0959	3	C10H13O+
150.0547	1	C8H8NO2+
150.0911	3	C9H12NO+
150.1275	9	C10H16N+
151.0862	1	C8H11N2O+
152.0703	16	C8H10NO2+
152.1066	6	C9H14NO+
153.0654	1	C7H9N2O2+
155.0812	520	C7H11N2O2+
156.0651	1	C7H10NO3+
156.0781	4	C8H12O3+
156.0844	22	H10N7O3+
157.101	9	C12H13+
157.1333	95	C8H17N2O+
158.0961	3	C11H12N+
158.1366	6	C3H18N4O3+
159.08	4	C11H11O+
159.1165	15	C12H15+
160.1119	4	C11H14N+
161.096	68	C11H13O+
161.1324	5	C12H17+
162.0993	6	C6H14N2O3+
162.1276	30	C11H16N+
163.1114	805	C11H15O+
164.1148	64	C4H14N5O2+
165.0914	9	C10H13O2+
165.1019	68	C9H13N2O+
166.0858	9	C9H12NO2+
166.1054	2	C2H12N7O2+
167.081	79	C8H11N2O2+
168.0652	13	C8H10NO3+
168.0843	1	CH10N7O3+
169.1016	14	C13H13+
169.1331	1	C9H17N2O+
170.0808	6	C8H12NO3+
171.0801	15	C12H11O+
171.1165	16	C13H15+
171.1487	7	C9H19N2O+
172.12	1	C6H14N5O+
173.096	44	C12H13O+
174.1044	8	C12H14O+
175.0859	2	C10H11N2O+
175.1116	13	C12H15O+
176.0705	4	C10H10NO2+
176.107	6	C11H14NO+
178.1221	9	C11H16NO+
178.1348	3	C12H18O+
179.1063	3	C11H15O2+
180.1379	16	C11H18NO+
181.1014	11	C14H13+
181.1334	6	C10H17N2O+
182.0807	8	C9H12NO3+
183.0763	1	C8H11N2O3+
183.1168	6	C14H15+
185.0917	15	C8H13N2O3+
185.1278	66	C7H15N5O+
186.0758	1	C8H12NO4+
186.0907	7	C12H12NO+
187.1116	27	C13H15O+
188.1067	9	C12H14NO+
188.1151	3	C8H16N2O3+
188.1429	8	C13H18N+
189.1271	7	C13H17O+
190.1222	23	C12H16NO+
190.1587	5	C13H20N+
191.1062	5	C12H15O2+
191.1178	1	C11H15N2O+
193.0966	4	C10H13N2O2+
193.1218	2	C12H17O2+
194.1646	3	C11H20N3+
195.0759	168	C9H11N2O3+
195.1164	29	C15H15+
196.06	21	C9H10NO4+
196.0794	9	C2H10N7O4+
196.1196	3	C8H14N5O+
197.1278	22	C8H15N5O+
197.1642	4	C11H21N2O+
198.0755	8	C9H12NO4+
198.1485	3	C11H20NO2+
200.1429	3	C14H18N+
201.1269	5	C14H17O+
202.1592	2	C14H20N+
203.1066	4	C13H15O2+
203.1173	35	C12H15N2O+
204.1017	7	C12H14NO2+
204.1212	3	C7H16N4O3+
204.1379	11	C13H18NO+
205.1006	1	C16H13+
206.0814	1	C11H12NO3+
206.1539	4	C13H20NO+
207.1162	4	C16H15+
209.129	55	C11H17N2O2+
210.0757	3	C10H12NO4+
210.1235	1	C10H16N3O2+
210.1346	4	C9H16N5O+
211.0712	4	C9H11N2O4+
213.0866	999	C9H13N2O4+
214.0713	10	C9H12NO5+
214.0901	56	C4H14N4O6+
215.1033	4	C10H11N6+
216.1382	3	C14H18NO+
218.1535	118	C14H20NO+
219.1129	1	C12H15N2O2+
219.1572	10	C9H21N3O3+
220.1078	8	C11H14N3O2+
221.0916	12	C11H13N2O3+
221.1319	1	C17H17+
222.1596	7	C12H20N3O+
223.1073	27	C11H15N2O3+
224.1107	1	C4H14N7O4+
225.1262	9	C14H15N3+
226.1585	96	C16H20N+
227.162	9	C9H19N6O+
228.1377	14	C15H18NO+
229.1219	1	C15H17O2+
229.133	5	C14H17N2O+
231.1124	104	C13H15N2O2+
232.0963	25	C13H14NO3+
232.1148	7	C6H14N7O3+
232.133	3	C14H18NO2+
233.1004	1	C8H15N3O5+
233.165	1	C14H21N2O+
234.1485	4	C14H20NO2+
235.107	6	C12H15N2O3+
235.1478	7	C18H19+
236.1639	3	C14H22NO2+
237.123	94	C12H17N2O3+
237.1633	193	C18H21+
238.1175	4	C11H16N3O3+
238.1666	23	C11H20N5O+
239.0657	76	C10H11N2O5+
239.1022	7	C11H15N2O4+
240.069	6	C3H10N7O6+
240.1701	8	C12H22N3O2+
241.1182	5	C11H17N2O4+
242.1533	1	C14H18N4+
242.1858	4	C12H24N3O2+
243.1335	121	C11H19N2O4+
244.1365	8	C4H18N7O5+
246.1484	222	C15H20NO2+
247.1069	1	C13H15N2O3+
247.1492	30	C7H23N2O7+
248.1392	18	C13H18N3O2+
248.1642	5	C15H22NO2+
249.1228	795	C13H17N2O3+
250.1264	71	C6H16N7O4+
250.1543	26	C11H18N6O+
251.1022	20	C12H15N2O4+
251.1384	4	C13H19N2O3+
252.1053	1	C5H14N7O5+
252.1744	1	C18H22N+
253.1174	1	C12H17N2O4+
254.1504	1	C12H20N3O3+
254.1895	7	C18H24N+
257.128	15	C15H17N2O2+
257.141	1	C16H19NO2+
258.1847	164	C17H24NO+
259.1071	25	C14H15N2O3+
259.1783	37	C14H21N5+
260.0914	1	C14H14NO4+
260.1105	1	C7H14N7O4+
260.1605	1	C11H22N3O4+
260.1835	3	C9H22N7O2+
262.1436	5	C15H20NO3+
263.1431	4	C19H19O+
263.2115	4	C16H27N2O+
264.1589	27	C15H22NO3+
264.1735	2	C19H22N+
265.1582	131	C19H21O+
266.113	22	C12H16N3O4+
266.1617	18	C12H20N5O2+
267.0972	4	C12H15N2O5+
268.165	216	C13H22N3O3+
269.1127	32	C12H17N2O5+
269.1686	20	C8H23N5O5+
269.189	12	C19H25O+
270.1158	1	C7H18N4O7+
274.1433	27	C16H20NO3+
275.1466	4	C9H19N6O4+
276.1337	61	C14H18N3O3+
277.1178	362	C14H17N2O4+
278.1215	35	C9H18N4O6+
282.1847	62	C19H24NO+
283.1884	6	C14H25N3O3+
284.1239	18	C12H18N3O5+
285.1927	5	C13H25N4O3+
286.1755	3	C13H24N3O4+
287.1749	44	C17H23N2O2+
288.1596	2	C17H22NO3+
288.1776	5	C10H22N7O3+
292.1538	63	C16H22NO4+
292.1696	3	C18H20N4+
293.1126	48	C14H17N2O5+
293.1579	8	C11H23N3O6+
294.1442	212	C14H20N3O4+
295.1283	6	C14H19N2O5+
295.1475	19	C23H19+
296.1244	1	C13H18N3O5+
296.1604	3	C14H22N3O4+
297.1841	19	
298.1871	2	C13H24N5O3+
302.1498	2	C16H20N3O3+
303.1333	1	C16H19N2O4+
306.1828	6	C18H26O4+
310.1028	17	C13H16N3O6+
310.1809	4	C20H24NO2+
313.1906	1	C19H25N2O2+
314.1707	15	C14H24N3O5+
315.134	7	C17H19N2O4+
316.1537	3	C18H22NO4+
317.1852	4	C16H23N5O2+
319.2012	24	C18H27N2O3+
320.1602	22	C16H22N3O4+
320.2004	25	C22H26NO+
321.1634	3	C25H21+
321.204	3	C17H27N3O3+
322.1395	14	C15H20N3O5+
324.1189	5	C14H18N3O6+
324.1916	5	C16H26N3O4+
325.2229	3	C16H29N4O3+
327.1708	11	C19H23N2O3+
327.1901	2	C14H25N5O4+
327.2066	16	C20H27N2O2+
329.1854	74	C19H25N2O3+
330.1437	1	C15H18N6O3+
330.1884	10	C11H28N3O8+
331.2018	5	C19H27N2O3+
332.1605	1	C17H22N3O4+
334.176	5	C17H24N3O4+
338.1706	5	C16H24N3O5+
339.1699	1	C20H23N2O3+
340.1499	9	C15H22N3O6+
342.1452	5	C18H20N3O4+
344.1964	46	C19H26N3O3+
345.1802	15	C19H25N2O4+
345.2176	1	C6H31N7O9+
347.196	159	C19H27N2O4+
348.1552	26	C17H22N3O5+
348.197	36	C11H30N3O9+
349.1572	1	C24H19N3+
349.1982	3	C18H27N3O4+
351.2021	36	C17H27N4O4+
352.2268	2	C23H30NO2+
353.1882	1	C26H25O+
354.1647	1	C14H22N6O5+
355.1647	4	C20H23N2O4+
357.1803	16	C20H25N2O4+
360.155	12	C18H22N3O5+
362.2071	61	C19H28N3O4+
363.2105	6	C28H27+
366.1665	4	C17H24N3O6+
366.2052	6	C21H26N4O2+
367.2099	1	C18H29N3O5+
370.2139	1	C23H30O4+
373.1753	11	
374.2069	1	C21H24N7+
375.1911	540	C20H27N2O5+
376.1944	84	C13H26N7O6+
379.198	10	C17H31O9+
380.222	6	C24H30NO3+
381.2247	1	C19H31N3O5+
382.2118	1	C20H26N6O2+
383.233	1	C23H31N2O3+
384.228	44	C22H30N3O3+
389.2182	26	C20H29N4O4+
390.2015	36	C18H26N6O4+
391.205	5	C14H33NO11+
392.2178	1	C20H30N3O5+
395.1562	6	C17H23N4O7+
397.2077	236	C18H29N4O6+
398.2109	34	
400.2225	21	C22H30N3O4+
407.2284	50	C20H31N4O5+
410.2053	1	C20H30N2O7+
411.2262	1	C22H29N5O3+
416.2169	10	C20H28N6O4+
418.1971	3	C21H28N3O6+
418.2332	4	C22H32N3O5+
420.2496	1	C22H34N3O5+
421.2083	3	C22H31NO7+
421.2471	1	C24H31N5O2+
428.2177	26	C21H28N6O4+
431.2318	9	C25H29N5O2+
433.2443	35	C22H33N4O5+
446.228	81	C23H32N3O6+
447.2312	15	C17H37NO12+
450.2467	1	C22H34N4O6+
456.2486	13	C23H32N6O4+
461.2387	11	
462.2364	5	C24H34N2O7+
463.2214	1	C24H33NO8+
463.2569	12	C25H37NO7+
477.2383	26	C28H33N2O5+
478.2671	3	C25H38N2O7+
486.2749	3	C30H36N3O3+
491.2542	1	C29H35N2O5+
498.2712	7	C26H36N5O5+
508.2396	8	C37H32O2+
509.2657	18	C30H33N6O2+
510.2674	4	C23H42O12+
513.3061	12	
514.3093	3	C35H38N4+
516.2815	15	C26H38N5O6+
518.3006	15	C29H38N6O3+
534.2956	1	C29H38N6O4+
544.2749	16	
545.2791	1	C34H35N5O2+
548.2763	3	C32H34N7O2+
559.3124	4	C29H43N4O7+
580.3031	4	C34H44O8+
670.3439	15	C48H46O3+
804.4196	1	C43H58N5O10+
817.4143	1	C45H59N3O11+
834.4395	3	C43H60N7O10+
