Mass spectrum: Microcystin-LY; LC-ESI-QFT; MS2; CE: 90; R=35000; [M+H]+
Name: Microcystin-LY
Name: 15-[(4-hydroxyphenyl)methyl]-18-[(1Z,3E)-6-methoxy-3,5-dimethyl-7-phenylhepta-1,3-dienyl]-1,5,12,19-tetramethyl-2-methylidene-8-(2-methylpropyl)-3,6,9,13,16,20,25-heptaoxo-1,4,7,10,14,17,21-heptazacyclopentacosane-11,22-dicarboxylic acid
Formula: C52H71N7O13
Exact mass: 1001.51099
SMILES: O=C(O)C2NC(=O)C(NC(=O)C(NC(=O)\C(=C)N(C(=O)CCC(C(=O)O)NC(=O)C(C)C(/C=C\C(=C\C(C)C(OC)Cc1ccccc1)C)NC(=O)C(NC(=O)C2C)Cc3ccc(O)cc3)C)C)CC(C)C
InChI: InChI=1S/C52H71N7O13/c1-28(2)24-40-50(67)58-44(52(70)71)32(6)46(63)56-41(26-36-17-19-37(60)20-18-36)49(66)54-38(21-16-29(3)25-30(4)42(72-10)27-35-14-12-11-13-15-35)31(5)45(62)55-39(51(68)69)22-23-43(61)59(9)34(8)48(65)53-33(7)47(64)57-40/h11-21,25,28,30-33,38-42,44,60H,8,22-24,26-27H2,1-7,9-10H3,(H,53,65)(H,54,66)(H,55,62)(H,56,63)(H,57,64)(H,58,67)(H,68,69)(H,70,71)/b21-16-,29-25+
Instrument: Q Exactive Orbitrap Thermo Scientific
Instrument type: LC-ESI-QFT
Ms type: MS2
Ion mode: POSITIVE
Ionization: ESI
Fragmentation mode: HCD
Collision energy: 90 (nominal)
Resolution: 35000
Column name: XBridge C18 3.5um, 2.1x50mm, Waters
Retention time: 12.4 min
Base peak: 1002.5178
Precursor m/z: 1002.5183
Precursor type: [M+H]+
m/z	relative intensity	assigned
70.0651	1	C4H8N+
71.0128	1	C3H3O2+
74.0237	10	C2H4NO2+
74.0965	1	C4H12N+
77.0385	33	C6H5+
78.0464	4	C6H6+
79.0542	207	C6H7+
80.0495	49	C5H6N+
81.0335	4	C5H5O+
81.0447	1	C4H5N2+
81.0572	6	C5H7N+
81.0699	16	C6H9+
82.0287	20	C4H4NO+
82.0651	95	C5H8N+
83.0492	1	C5H7O+
84.0444	106	C4H6NO+
84.0808	5	C5H10N+
85.0284	16	C4H5O2+
86.06	12	C4H8NO+
86.0964	76	C5H12N+
89.0385	1	C7H5+
91.0542	999	C7H7+
92.0493	3	C6H6N+
92.0619	15	C7H8+
93.0698	120	C7H9+
94.0651	32	C6H8N+
94.0777	3	C7H10+
95.0491	300	C6H7O+
96.0445	6	C5H6NO+
96.0682	5	C5H8N2+
96.0807	9	C6H10N+
97.0761	3	C5H9N2+
99.0917	47	C5H11N2+
102.0464	15	C8H6+
102.0551	6	C4H8NO2+
103.0542	756	C8H7+
104.0576	3	C3H8N2O2+
104.0619	5	C8H8+
105.0447	53	C6H5N2+
105.0699	371	C8H9+
106.0415	1	C7H6O+
106.0524	10	C6H6N2+
106.065	7	C7H8N+
106.0777	3	C8H10+
107.0491	44	C7H7O+
107.0855	339	C8H11+
108.0443	1	C6H6NO+
108.0681	13	C6H8N2+
108.0807	8	C7H10N+
109.0648	85	C7H9O+
110.06	21	C6H8NO+
110.0965	4	C7H12N+
111.055	1	C5H7N2O+
111.0915	1	C6H11N2+
112.0392	1	C5H6NO2+
112.0755	1	C6H10NO+
113.0233	30	C5H5O3+
115.0542	99	C9H7+
116.062	12	C9H8+
117.0571	7	C8H7N+
117.0698	60	C9H9+
118.0651	16	C8H8N+
119.0491	107	C8H7O+
119.0603	22	C7H7N2+
119.0855	26	C9H11+
120.0529	1	C3H8N2O3+
120.0569	11	C8H8O+
120.0807	14	C8H10N+
120.0934	10	C9H12+
121.0647	8	C8H9O+
121.076	69	C7H9N2+
122.06	9	C7H8NO+
122.0837	8	C7H10N2+
122.0964	5	C8H12N+
123.0807	1	C8H11O+
123.0917	7	C7H11N2+
124.0517	1	C7H8O2+
124.0757	6	C7H10NO+
124.1121	3	C8H14N+
125.0709	1	C6H9N2O+
126.0547	1	C6H8NO2+
127.0865	194	C6H11N2O+
128.062	47	C10H8+
129.0698	30	C10H9+
130.0498	4	C5H8NO3+
130.0651	14	C9H8N+
130.0777	12	C10H10+
131.073	6	C9H9N+
131.0855	35	C10H11+
132.0808	5	C9H10N+
133.0522	1	C8H7NO+
133.0648	4	C9H9O+
133.0889	1	C9H11N+
133.1012	11	C10H13+
134.06	4	C8H8NO+
134.0966	6	C9H12N+
135.0676	2	C8H9NO+
135.0804	25	C9H11O+
135.1167	21	C10H15+
136.0756	96	C8H10NO+
137.0712	1	C7H9N2O+
138.0549	6	C7H8NO2+
139.0864	7	C7H11N2O+
141.0698	16	C11H9+
142.0777	1	C11H10+
143.073	1	C10H9N+
143.0857	6	C11H11+
144.0445	4	C9H6NO+
144.057	1	C10H8O+
144.0809	4	C10H10N+
144.0934	1	C11H12+
145.0648	11	C10H9O+
145.0885	1	C10H11N+
145.1013	8	C11H13+
146.06	17	C9H8NO+
146.0965	7	C10H12N+
147.0678	1	C9H9NO+
148.1119	1	C10H14N+
149.0709	21	C8H9N2O+
150.055	1	C8H8NO2+
151.0865	1	C8H11N2O+
152.062	3	C12H8+
153.0699	5	C12H9+
154.0775	3	C12H10+
155.0602	4	C10H7N2+
155.0852	1	C12H11+
157.0647	1	C11H9O+
158.0964	3	C11H12N+
159.068	4	C10H9NO+
159.0805	5	C11H11O+
159.1171	1	C12H15+
160.076	1	C10H10NO+
160.1121	1	C11H14N+
162.0549	7	C9H8NO2+
162.0912	1	C10H12NO+
162.1275	1	C11H16N+
163.1115	1	C11H15O+
165.0698	30	C13H9+
166.0777	9	C13H10+
167.081	35	C8H11N2O2+
168.0655	3	C8H10NO3+
172.1124	1	C12H14N+
173.096	1	C12H13O+
174.0914	1	C11H12NO+
178.0776	7	H12N5O6+
179.0856	14	C14H11+
180.0933	3	C14H12+
181.1012	1	C14H13+
191.0855	1	C15H11+
192.0932	3	C15H12+
193.101	4	C15H13+
195.0762	4	C9H11N2O3+
202.0776	1	C16H10+
217.1011	1	C17H13+
