Mass spectrum: Microcystin-LA; LC-ESI-QFT; MS2; CE: 90; R=35000; [M-H]-
Name: Microcystin-LA
Name: (5R,8S,11R,12S,15S,18S,19S,22R)-18-[(1E,3E,5S,6S)-6-methoxy-3,5-dimethyl-7-phenylhepta-1,3-dienyl]-1,5,12,15,19-pentamethyl-2-methylidene-8-(2-methylpropyl)-3,6,9,13,16,20,25-heptaoxo-1,4,7,10,14,17,21-heptazacyclopentacosane-11,22-dicarboxylic acid
Formula: C46H67N7O12
Exact mass: 909.48477
SMILES: O=C2N[C@@H](\C=C\C(=C\[C@H](C)[C@@H](OC)Cc1ccccc1)C)[C@@H](C(=O)N[C@@H](C(=O)O)CCC(=O)N(/C(=C)C(=O)N[C@@H](C(=O)N[C@H](C(=O)N[C@@H](C(=O)O)[C@@H](C(=O)N[C@H]2C)C)CC(C)C)C)C)C
InChI: InChI=1S/C46H67N7O12/c1-24(2)21-35-44(60)52-38(46(63)64)28(6)40(56)47-29(7)41(57)49-33(18-17-25(3)22-26(4)36(65-11)23-32-15-13-12-14-16-32)27(5)39(55)50-34(45(61)62)19-20-37(54)53(10)31(9)43(59)48-30(8)42(58)51-35/h12-18,22,24,26-30,33-36,38H,9,19-21,23H2,1-8,10-11H3,(H,47,56)(H,48,59)(H,49,57)(H,50,55)(H,51,58)(H,52,60)(H,61,62)(H,63,64)/b18-17+,25-22+/t26-,27-,28-,29-,30+,33-,34+,35-,36-,38+/m0/s1
Instrument: Q Exactive Orbitrap Thermo Scientific
Instrument type: LC-ESI-QFT
Ms type: MS2
Ion mode: NEGATIVE
Ionization: ESI
Fragmentation mode: HCD
Collision energy: 90 (nominal)
Resolution: 35000
Column name: XBridge C18 3.5um, 2.1x50mm, Waters
Retention time: 12.1 min
Base peak: 908.4785
Precursor m/z: 908.4775
Precursor type: [M-H]-
m/z	relative intensity	assigned
65.9986	34	C3NO-
66.0349	265	C4H4N-
67.019	49	C4H3O-
68.0505	19	C4H6N-
69.0346	12	C4H5O-
70.0298	125	C3H4NO-
71.0139	8	C3H3O2-
71.0251	72	C2H3N2O-
71.0502	9	C4H7O-
72.0091	83	C2H2NO2-
72.0455	294	C3H6NO-
73.0295	111	C3H5O2-
74.0248	357	C2H4NO2-
80.0506	94	C5H6N-
81.0221	17	C4H3NO-
81.0459	41	C4H5N2-
81.0709	12	C6H9-
82.0173	40	C3H2N2O-
82.0298	273	C4H4NO-
82.0662	296	C5H8N-
83.0251	48	C3H3N2O-
83.0504	14	C5H7O-
84.0455	611	C4H6NO-
84.0819	86	C5H10N-
85.0408	43	C3H5N2O-
85.0661	9	C5H9O-
86.0612	9	C4H8NO-
87.0564	524	C3H7N2O-
88.0404	50	C3H6NO2-
92.0507	37	C6H6N-
94.0299	47	C5H4NO-
94.0662	76	C6H8N-
95.0251	132	C4H3N2O-
95.0376	33	C5H5NO-
96.0091	12	C4H2NO2-
96.033	107	C4H4N2O-
96.0454	78	C5H6NO-
96.0819	103	C6H10N-
97.0408	207	C4H5N2O-
98.0121	52	C3H2N2O2-
98.0247	54	C4H4NO2-
98.061	16	C5H8NO-
99.0564	207	C4H7N2O-
100.0404	9	C4H6NO2-
101.0721	42	C4H9N2O-
102.0561	11	C4H8NO2-
106.0661	12	C7H8N-
107.0613	11	C6H7N2-
108.0212	48	C6H4O2-
108.0329	125	C5H4N2O-
108.0455	48	C6H6NO-
109.0169	87	C5H3NO2-
109.0408	406	C5H5N2O-
109.0771	47	C6H9N2-
110.0248	999	C5H4NO2-
110.0359	121	C4H4N3O-
110.0488	58	C5H6N2O-
111.0201	107	C4H3N2O2-
111.028	14	H5N3O4-
111.0565	77	C5H7N2O-
112.0404	190	C5H6NO2-
112.0768	172	C6H10NO-
113.0357	153	C4H5N2O2-
113.0719	11	C5H9N2O-
120.0453	15	C7H6NO-
121.0295	15	C7H5O2-
121.0407	19	C6H5N2O-
121.0533	16	C7H7NO-
122.0248	20	C6H4NO2-
122.0486	92	C6H6N2O-
122.0611	19	C7H8NO-
122.0975	18	C8H12N-
123.02	55	C5H3N2O2-
123.0326	206	C6H5NO2-
123.0437	46	C5H5N3O-
123.0564	136	C6H7N2O-
124.0276	15	C5H4N2O2-
124.0404	295	C6H6NO2-
124.0516	65	C5H6N3O-
125.0356	20	C5H5N2O2-
125.0595	216	C5H7N3O-
125.0719	78	C6H9N2O-
126.056	16	C6H8NO2-
127.0514	87	C5H7N2O2-
127.0877	12	C6H11N2O-
128.0353	429	C5H6NO3-
129.1034	354	C6H13N2O-
130.0873	33	C6H12NO2-
135.0326	69	C7H5NO2-
135.0565	59	C7H7N2O-
137.072	48	C7H9N2O-
138.0435	127	C6H6N2O2-
138.0559	44	C7H8NO2-
138.0798	14	C7H10N2O-
139.0877	147	C7H11N2O-
148.0281	9	C7H4N2O2-
150.0561	69	C8H8NO2-
150.067	12	C7H8N3O-
153.0667	34	C7H9N2O2-
153.1033	38	C8H13N2O-
155.0825	10	C7H11N2O2-
155.1189	44	C8H15N2O-
163.0511	11	C8H7N2O2-
165.1033	77	C9H13N2O-
180.1139	11	C9H14N3O-
182.1298	144	C9H16N3O-
193.0729	9	C8H9N4O2-
