Mass spectrum: Finasteride; LC-ESI-QFT; MS2; CE: 35 NCE; R=35000; [M+H]+
Name: Finasteride
Name: (1S,3aS,3bS,5aR,9aR,9bS,11aS)-N-tert-butyl-9a,11a-dimethyl-7-oxo-1,2,3,3a,3b,4,5,5a,6,9b,10,11-dodecahydroindeno[5,4-f]quinoline-1-carboxamide
Formula: C23H36N2O2
Exact mass: 372.27768
SMILES: C[C@]12CC[C@H]3[C@H]([C@@H]1CC[C@@H]2/C(=N/C(C)(C)C)/O)CC[C@@H]4[C@@]3(C=CC(=N4)O)C
InChI: InChI=1S/C23H36N2O2/c1-21(2,3)25-20(27)17-8-7-15-14-6-9-18-23(5,13-11-19(26)24-18)16(14)10-12-22(15,17)4/h11,13-18H,6-10,12H2,1-5H3,(H,24,26)(H,25,27)/t14-,15-,16-,17+,18+,22-,23+/m0/s1
Instrument: Q Exactive Plus Orbitrap Thermo Scientific
Instrument type: LC-ESI-QFT
Ms type: MS2
Ion mode: POSITIVE
Ionization: ESI
Fragmentation mode: HCD
Collision energy: 35  (nominal)
Resolution: 35000
Column name: Kinetex C18 EVO 2.6 um, 2.1x50 mm, precolumn 2.1x5 mm, Phenomenex
Retention time: 7.528 min
Base peak: 256.1692
Precursor m/z: 256.1696
Precursor type: [M+H]+
m/z	relative intensity	assigned
88.0757	2	C4H10NO+
151.054	1	C12H7+
152.062	39	C12H8+
165.0699	50	C13H9+
166.0778	17	C13H10+
167.0855	999	C13H11+
169.0649	1	C12H9O+
256.1695	3	C17H22NO+
