Mass spectrum: Fluometuron; LC-ESI-QFT; MS2; CE: 150; R=35000; [M+H]+
Name: Fluometuron
Name: 1,1-dimethyl-3-[3-(trifluoromethyl)phenyl]urea
Formula: C10H11F3N2O
Exact mass: 232.08235
SMILES: CN(C)C(=O)NC1=CC=CC(=C1)C(F)(F)F
InChI: InChI=1S/C10H11F3N2O/c1-15(2)9(16)14-8-5-3-4-7(6-8)10(11,12)13/h3-6H,1-2H3,(H,14,16)
Instrument: Q Exactive Plus Orbitrap Thermo Scientific
Instrument type: LC-ESI-QFT
Ms type: MS2
Ion mode: POSITIVE
Ionization: ESI
Fragmentation mode: HCD
Collision energy: 150 (nominal)
Resolution: 35000
Column name: XBridge C18 3.5um, 2.1x50mm, Waters
Retention time: 8.0 min
Base peak: 233.0892
Precursor m/z: 233.0896
Precursor type: [M+H]+
m/z	relative intensity	assigned
51.0042	19	CHF2+
51.023	7	C4H3+
53.0022	6	C3HO+
56.0131	250	C2H2NO+
57.0135	26	C3H2F+
62.0151	2	C5H2+
63.023	99	C5H3+
64.0182	6	C4H2N+
64.0307	5	C5H4+
68.9947	22	CF3+
69.0136	2	C4H2F+
71.0292	6	C4H4F+
72.0444	999	C3H6NO+
74.0151	30	C6H2+
75.0041	56	C3HF2+
75.0229	206	C6H3+
76.0181	1	C5H2N+
81.0136	8	C5H2F+
83.0292	42	C5H4F+
90.0339	22	C6H4N+
91.0417	16	C6H5N+
93.0137	7	C6H2F+
95.0104	6	C3H2F3+
95.0292	31	C6H4F+
99.0041	13	C5HF2+
99.0104	2	C7HN+
100.0182	29	C7H2N+
105.0136	1	C7H2F+
111.0242	2	C6H4FO+
113.0198	20	C6H3F2+
113.0398	43	C6H6FO+
115.0353	1	C6H5F2+
119.0105	10	C5H2F3+
120.0246	2	C7H3FN+
123.0354	86	C6H4FN2+
125.0198	46	C7H3F2+
131.0306	11	C6H5F2O+
132.0185	5	C6H3F3+
133.026	10	C6H4F3+
140.0307	10	C7H4F2N+
141.0259	47	C6H3F2N2+
145.0261	57	C7H4F3+
148.0307	10	C7H3FN3+
