Mass spectrum: Microcystin-LA; LC-ESI-QFT; MS2; CE: 75; R=35000; [M-H]-
Name: Microcystin-LA
Name: (5R,8S,11R,12S,15S,18S,19S,22R)-18-[(1E,3E,5S,6S)-6-methoxy-3,5-dimethyl-7-phenylhepta-1,3-dienyl]-1,5,12,15,19-pentamethyl-2-methylidene-8-(2-methylpropyl)-3,6,9,13,16,20,25-heptaoxo-1,4,7,10,14,17,21-heptazacyclopentacosane-11,22-dicarboxylic acid
Formula: C46H67N7O12
Exact mass: 909.48477
SMILES: O=C2N[C@@H](\C=C\C(=C\[C@H](C)[C@@H](OC)Cc1ccccc1)C)[C@@H](C(=O)N[C@@H](C(=O)O)CCC(=O)N(/C(=C)C(=O)N[C@@H](C(=O)N[C@H](C(=O)N[C@@H](C(=O)O)[C@@H](C(=O)N[C@H]2C)C)CC(C)C)C)C)C
InChI: InChI=1S/C46H67N7O12/c1-24(2)21-35-44(60)52-38(46(63)64)28(6)40(56)47-29(7)41(57)49-33(18-17-25(3)22-26(4)36(65-11)23-32-15-13-12-14-16-32)27(5)39(55)50-34(45(61)62)19-20-37(54)53(10)31(9)43(59)48-30(8)42(58)51-35/h12-18,22,24,26-30,33-36,38H,9,19-21,23H2,1-8,10-11H3,(H,47,56)(H,48,59)(H,49,57)(H,50,55)(H,51,58)(H,52,60)(H,61,62)(H,63,64)/b18-17+,25-22+/t26-,27-,28-,29-,30+,33-,34+,35-,36-,38+/m0/s1
Instrument: Q Exactive Orbitrap Thermo Scientific
Instrument type: LC-ESI-QFT
Ms type: MS2
Ion mode: NEGATIVE
Ionization: ESI
Fragmentation mode: HCD
Collision energy: 75 (nominal)
Resolution: 35000
Column name: XBridge C18 3.5um, 2.1x50mm, Waters
Retention time: 12.1 min
Base peak: 908.4785
Precursor m/z: 908.4775
Precursor type: [M-H]-
m/z	relative intensity	assigned
65.9987	25	C3NO-
66.0349	150	C4H4N-
67.019	29	C4H3O-
68.0506	29	C4H6N-
69.0346	10	C4H5O-
70.0299	79	C3H4NO-
71.0139	6	C3H3O2-
71.0251	44	C2H3N2O-
71.0503	14	C4H7O-
72.0091	59	C2H2NO2-
72.0455	259	C3H6NO-
73.0295	102	C3H5O2-
74.0248	292	C2H4NO2-
80.0507	77	C5H6N-
81.022	38	C4H3NO-
81.0459	31	C4H5N2-
82.0173	30	C3H2N2O-
82.0299	241	C4H4NO-
82.0662	230	C5H8N-
83.0251	24	C3H3N2O-
83.0502	8	C5H7O-
84.0455	548	C4H6NO-
84.0819	64	C5H10N-
85.0295	9	C4H5O2-
85.0408	41	C3H5N2O-
85.066	13	C5H9O-
86.061	13	C4H8NO-
87.0564	513	C3H7N2O-
88.0405	57	C3H6NO2-
92.0506	23	C6H6N-
94.0298	54	C5H4NO-
94.0539	11	C5H6N2-
94.0662	47	C6H8N-
95.0251	61	C4H3N2O-
95.0375	17	C5H5NO-
96.0091	7	C4H2NO2-
96.0329	67	C4H4N2O-
96.0455	75	C5H6NO-
96.082	107	C6H10N-
97.0408	202	C4H5N2O-
98.0121	32	C3H2N2O2-
98.0249	51	C4H4NO2-
98.061	42	C5H8NO-
99.0564	453	C4H7N2O-
100.0404	10	C4H6NO2-
100.0765	10	C5H10NO-
101.0721	33	C4H9N2O-
102.0561	13	C4H8NO2-
106.0662	12	C7H8N-
107.0615	30	C6H7N2-
108.0216	13	C6H4O2-
108.033	108	C5H4N2O-
108.0455	68	C6H6NO-
109.0169	82	C5H3NO2-
109.0408	239	C5H5N2O-
109.0772	41	C6H9N2-
110.0248	906	C5H4NO2-
110.0485	50	C5H6N2O-
110.0611	74	C6H8NO-
111.02	118	C4H3N2O2-
111.0282	14	H5N3O4-
111.0564	172	C5H7N2O-
112.0404	172	C5H6NO2-
112.0768	229	C6H10NO-
113.0357	201	C4H5N2O2-
113.072	11	C5H9N2O-
114.0924	13	C6H12NO-
120.0453	11	C7H6NO-
120.082	6	C8H10N-
121.0294	28	C7H5O2-
121.0407	25	C6H5N2O-
121.0532	12	C7H7NO-
122.0249	7	C6H4NO2-
122.0486	62	C6H6N2O-
122.0612	36	C7H8NO-
122.0975	49	C8H12N-
123.0202	22	C5H3N2O2-
123.0326	188	C6H5NO2-
123.0438	55	C5H5N3O-
123.0564	153	C6H7N2O-
124.0279	25	C5H4N2O2-
124.0404	320	C6H6NO2-
124.0514	58	C5H6N3O-
125.0355	65	C5H5N2O2-
125.0594	220	C5H7N3O-
125.072	143	C6H9N2O-
126.0561	34	C6H8NO2-
127.0513	118	C5H7N2O2-
127.0878	48	C6H11N2O-
128.0354	999	C5H6NO3-
129.1034	642	C6H13N2O-
130.0873	52	C6H12NO2-
130.1067	13	CH14N4O3-
131.0863	6	C10H11-
135.0327	38	C7H5NO2-
135.0565	57	C7H7N2O-
136.0399	9	C7H6NO2-
136.0516	7	C6H6N3O-
136.0642	10	C7H8N2O-
136.0769	8	C8H10NO-
136.1131	13	C9H14N-
137.0481	8	C7H7NO2-
137.072	125	C7H9N2O-
138.0435	132	C6H6N2O2-
138.056	142	C7H8NO2-
139.0514	43	C6H7N2O2-
139.0876	249	C7H11N2O-
140.0714	11	C7H10NO2-
140.0912	6	C2H12N4O3-
140.1082	11	C8H14NO-
141.0669	6	C6H9N2O2-
141.1033	8	C7H13N2O-
149.0716	8	C8H9N2O-
150.0559	152	C8H8NO2-
151.0882	7	C8H11N2O-
151.124	5	C9H15N2-
152.0826	29	C7H10N3O-
153.0669	92	C7H9N2O2-
153.1032	73	C8H13N2O-
154.0986	9	C7H12N3O-
155.0826	78	C7H11N2O2-
155.119	105	C8H15N2O-
157.1343	24	C8H17N2O-
163.0514	60	C8H7N2O2-
163.0876	7	C9H11N2O-
164.083	13	C8H10N3O-
165.0669	16	C8H9N2O2-
165.1031	216	C9H13N2O-
166.0988	9	C8H12N3O-
166.1069	6	C4H14N4O3-
167.0824	23	C8H11N2O2-
169.1346	38	C9H17N2O-
180.1141	75	C9H14N3O-
181.0984	12	C9H13N2O2-
182.1297	458	C9H16N3O-
183.1132	13	C9H15N2O2-
183.1335	8	C4H17N5O3-
193.0728	11	C8H9N4O2-
200.1403	13	C9H18N3O2-
208.1092	10	C10H14N3O2-
