Mass spectrum: Microcystin-YR; LC-ESI-QFT; MS2; CE: 75; R=35000; [M+H]+
Name: Microcystin-YR
Name: (5R,8S,11R,12R,15S,18S,19S,22R)-15-[3-(diaminomethylideneamino)propyl]-8-[(4-hydroxyphenyl)methyl]-18-[(1E,3E,5S,6S)-6-methoxy-3,5-dimethyl-7-phenylhepta-1,3-dienyl]-1,5,12,19-tetramethyl-2-methylidene-3,6,9,13,16,20,25-heptaoxo-1,4,7,10,14,17,21-heptazacyclopentacosane-11,22-dicarboxylic acid
Formula: C52H72N10O13
Exact mass: 1044.52803
SMILES: O=C2N[C@@H](\C=C\C(=C\[C@H](C)[C@@H](OC)Cc1ccccc1)C)[C@@H](C(=O)N[C@@H](C(=O)O)CCC(=O)N(/C(=C)C(=O)N[C@@H](C(=O)N[C@H](C(=O)N[C@@H](C(=O)O)[C@H](C(=O)N[C@H]2CCC/N=C(\N)N)C)Cc3ccc(O)cc3)C)C)C
InChI: InChI=1S/C52H72N10O13/c1-28(25-29(2)41(75-8)27-34-13-10-9-11-14-34)16-21-37-30(3)44(65)59-39(50(71)72)22-23-42(64)62(7)33(6)47(68)56-32(5)46(67)60-40(26-35-17-19-36(63)20-18-35)49(70)61-43(51(73)74)31(4)45(66)58-38(48(69)57-37)15-12-24-55-52(53)54/h9-11,13-14,16-21,25,29-32,37-41,43,63H,6,12,15,22-24,26-27H2,1-5,7-8H3,(H,56,68)(H,57,69)(H,58,66)(H,59,65)(H,60,67)(H,61,70)(H,71,72)(H,73,74)(H4,53,54,55)/b21-16+,28-25+/t29-,30-,31+,32+,37-,38-,39+,40-,41-,43+/m0/s1
Instrument: Q Exactive Orbitrap Thermo Scientific
Instrument type: LC-ESI-QFT
Ms type: MS2
Ion mode: POSITIVE
Ionization: ESI
Fragmentation mode: HCD
Collision energy: 75 (nominal)
Resolution: 35000
Column name: XBridge C18 3.5um, 2.1x50mm, Waters
Retention time: 9.9 min
Base peak: 523.2715
Precursor m/z: 1045.5353
Precursor type: [M+H]+
m/z	relative intensity	assigned
73.0635	2	C2H7N3+
74.015	1	C6H2+
74.0237	3	C2H4NO2+
74.0601	1	C3H8NO+
75.023	2	C6H3+
77.0386	50	C6H5+
78.0464	2	C6H6+
79.0543	129	C6H7+
80.0495	32	C5H6N+
81.0334	8	C5H5O+
81.0447	1	C4H5N2+
81.0699	5	C6H9+
82.0288	26	C4H4NO+
82.0652	59	C5H8N+
83.0604	3	C4H7N2+
84.0444	138	C4H6NO+
85.0285	11	C4H5O2+
85.0761	12	C4H9N2+
86.06	15	C4H8NO+
87.0791	4	C3H9N3+
88.0758	1	C4H10NO+
89.0385	5	C7H5+
91.0542	579	C7H7+
92.0496	1	C6H6N+
92.062	5	C7H8+
93.0699	96	C7H9+
94.0289	1	C5H4NO+
94.0651	22	C6H8N+
95.0491	313	C6H7O+
95.0604	36	C5H7N2+
96.0444	13	C5H6NO+
96.0681	2	C5H8N2+
96.0807	6	C6H10N+
97.0761	55	C5H9N2+
98.0601	72	C5H8NO+
99.0189	25	C3H3N2O2+
99.0917	51	C5H11N2+
100.0757	3	C5H10NO+
102.0465	21	C8H6+
102.055	8	C4H8NO2+
103.0543	999	C8H7+
104.0576	5	C3H8N2O2+
104.062	1	C8H8+
105.0448	55	C6H5N2+
105.0699	401	C8H9+
106.0525	4	C6H6N2+
106.0652	3	C7H8N+
106.0777	1	C8H10+
107.0492	35	C7H7O+
107.0855	284	C8H11+
108.0442	1	C6H6NO+
108.0681	7	C6H8N2+
108.0806	9	C7H10N+
109.0648	41	C7H9O+
109.0761	3	C6H9N2+
110.0237	3	C5H4NO2+
110.0601	17	C6H8NO+
110.0714	1	C5H8N3+
110.0964	2	C7H12N+
111.0553	2	C5H7N2O+
111.0917	2	C6H11N2+
112.0392	6	C5H6NO2+
112.087	74	C5H10N3+
113.0234	28	C5H5O3+
113.071	19	C5H9N2O+
114.055	8	C5H8NO2+
114.1027	12	C5H12N3+
115.0543	140	C9H7+
115.0867	36	C5H11N2O+
116.062	9	C9H8+
116.0705	4	C5H10NO2+
117.0699	115	C9H9+
118.0651	9	C8H8N+
119.0492	84	C8H7O+
119.0605	12	C7H7N2+
119.0856	22	C9H11+
120.0531	1	C3H8N2O3+
120.057	20	C8H8O+
120.0808	25	C8H10N+
120.0934	5	C9H12+
121.0648	6	C8H9O+
121.076	36	C7H9N2+
122.0601	5	C7H8NO+
122.0713	4	C6H8N3+
122.0839	4	C7H10N2+
122.0965	6	C8H12N+
123.0553	8	C6H7N2O+
123.0917	11	C7H11N2+
124.0393	2	C6H6NO2+
124.0515	1	C7H8O2+
124.0757	7	C7H10NO+
124.112	1	C8H14N+
125.0711	8	C6H9N2O+
126.0662	1	C5H8N3O+
127.0866	253	C6H11N2O+
128.0344	3	C5H6NO3+
128.062	18	C10H8+
128.0702	1	C6H10NO2+
129.0699	14	C10H9+
130.0498	13	C5H8NO3+
130.0652	6	C9H8N+
130.0779	2	C10H10+
130.0974	9	C5H12N3O+
131.0856	19	C10H11+
132.0807	3	C9H10N+
133.0647	1	C9H9O+
133.076	1	C8H9N2+
133.1012	8	C10H13+
134.0601	5	C8H8NO+
134.0965	4	C9H12N+
135.0804	112	C9H11O+
135.1168	36	C10H15+
136.0756	169	C8H10NO+
137.0712	1	C7H9N2O+
137.1073	1	C8H13N2+
138.0548	10	C7H8NO2+
138.0661	2	C6H8N3O+
138.0913	1	C8H12NO+
138.1025	1	C7H12N3+
139.0864	2	C7H11N2O+
139.0977	2	C6H11N4+
140.0706	1	C7H10NO2+
140.0818	11	C6H10N3O+
141.0657	48	C6H9N2O2+
142.0777	1	C11H10+
143.0733	1	C10H9N+
143.0856	5	C11H11+
144.081	3	C10H10N+
145.0649	5	C10H9O+
145.0888	1	C10H11N+
145.1012	8	C11H13+
146.0602	8	C9H8NO+
146.0965	4	C10H12N+
147.0441	7	C9H7O2+
148.0758	2	C9H10NO+
148.1123	3	C10H14N+
149.071	35	C8H9N2O+
150.0548	1	C8H8NO2+
150.0911	1	C9H12NO+
150.1027	4	C8H12N3+
151.0866	5	C8H11N2O+
152.062	1	C12H8+
152.0821	1	C7H10N3O+
153.0701	1	C12H9+
153.1022	7	C8H13N2O+
154.0776	1	C12H10+
154.0863	1	C8H12NO2+
155.0815	4	C7H11N2O2+
157.102	1	C12H13+
157.1086	5	C6H13N4O+
158.0918	1	C6H12N3O2+
158.0972	1	C11H12N+
159.0804	1	C11H11O+
159.1169	1	C12H15+
160.0758	5	C10H10NO+
160.112	1	C11H14N+
161.0965	1	C11H13O+
162.0552	1	C9H8NO2+
162.0914	3	C10H12NO+
162.1025	2	C9H12N3+
162.128	2	C11H16N+
163.0864	2	C9H11N2O+
163.1119	5	C11H15O+
164.0706	5	C9H10NO2+
164.1068	1	C10H14NO+
165.0701	10	C13H9+
166.0777	4	C13H10+
166.0972	1	C8H12N3O+
167.0814	67	C8H11N2O2+
168.0654	9	C8H10NO3+
170.0965	6	C12H12N+
172.1121	9	C12H14N+
174.091	2	C11H12NO+
176.107	1	C11H14NO+
178.0973	5	C9H12N3O+
179.0854	5	C14H11+
180.0934	1	C14H12+
181.1016	2	H15N5O6+
182.1036	7	C7H12N5O+
183.0877	3	C7H11N4O2+
186.0914	1	C12H12NO+
188.1072	1	C12H14NO+
193.1011	1	C15H13+
195.0762	16	C9H11N2O3+
196.0607	1	C9H10NO4+
201.0983	2	C7H13N4O3+
202.0861	1	C12H12NO2+
203.1176	3	C12H15N2O+
211.0713	1	C9H11N2O4+
213.087	9	C9H13N2O4+
239.0669	1	C10H11N2O5+
