Mass spectrum: Flumequine; LC-ESI-QTOF; MS2; CE: Ramp 20.2-30.4 eV; R=35000; [M+H]+
Name: Flumequine
Name: 9-Fluoro-5-methyl-1-oxo-6,7-dihydro-1H,5H-pyrido[3,2,1-ij]quinoline-2-carboxylic acid
Formula: C14H12FNO3
Exact mass: 261.0801
SMILES: CC1CCc2cc(cc3c2n1cc(c3=O)C(=O)O)F
InChI: InChI=1S/C14H12FNO3/c1-7-2-3-8-4-9(15)5-10-12(8)16(7)6-11(13(10)17)14(18)19/h4-7H,2-3H2,1H3,(H,18,19)
Instrument: Bruker maXis Impact
Instrument type: LC-ESI-QTOF
Ms type: MS2
Ion mode: POSITIVE
Ionization: ESI
Fragmentation mode: CID
Collision energy: Ramp 20.2-30.4 eV
Resolution: 35000
Column name: Acclaim RSLC C18 2.2um, 2.1x100mm, Thermo
Retention time: 7.5 min
Base peak: 262.0882
Precursor m/z: 262.0874
Precursor type: [M+H]+
m/z	relative intensity	assigned
60.0558	8	C3H8O+
174.0356	7	C10H5FNO+
202.0307	58	C11H5FNO2+
203.033	9	C14H5NO+
220.042	51	C11H7FNO3+
221.0451	9	C14H7NO2+
238.0574	126	C14H8NO3+
239.059	13	C14H9NO3+
244.078	330	C14H11FNO2+
245.0815	42	C14H12FNO2+
262.0896	999	C14H13FNO3+
263.0965	200	C12H13N3O4+
264.0988	15	C13H13FN2O3+
