Mass spectrum: Microcystin-LY; LC-ESI-QFT; MS2; CE: 60; R=35000; [M+H]+
Name: Microcystin-LY
Name: 15-[(4-hydroxyphenyl)methyl]-18-[(1Z,3E)-6-methoxy-3,5-dimethyl-7-phenylhepta-1,3-dienyl]-1,5,12,19-tetramethyl-2-methylidene-8-(2-methylpropyl)-3,6,9,13,16,20,25-heptaoxo-1,4,7,10,14,17,21-heptazacyclopentacosane-11,22-dicarboxylic acid
Formula: C52H71N7O13
Exact mass: 1001.51099
SMILES: O=C(O)C2NC(=O)C(NC(=O)C(NC(=O)\C(=C)N(C(=O)CCC(C(=O)O)NC(=O)C(C)C(/C=C\C(=C\C(C)C(OC)Cc1ccccc1)C)NC(=O)C(NC(=O)C2C)Cc3ccc(O)cc3)C)C)CC(C)C
InChI: InChI=1S/C52H71N7O13/c1-28(2)24-40-50(67)58-44(52(70)71)32(6)46(63)56-41(26-36-17-19-37(60)20-18-36)49(66)54-38(21-16-29(3)25-30(4)42(72-10)27-35-14-12-11-13-15-35)31(5)45(62)55-39(51(68)69)22-23-43(61)59(9)34(8)48(65)53-33(7)47(64)57-40/h11-21,25,28,30-33,38-42,44,60H,8,22-24,26-27H2,1-7,9-10H3,(H,53,65)(H,54,66)(H,55,62)(H,56,63)(H,57,64)(H,58,67)(H,68,69)(H,70,71)/b21-16-,29-25+
Instrument: Q Exactive Orbitrap Thermo Scientific
Instrument type: LC-ESI-QFT
Ms type: MS2
Ion mode: POSITIVE
Ionization: ESI
Fragmentation mode: HCD
Collision energy: 60 (nominal)
Resolution: 35000
Column name: XBridge C18 3.5um, 2.1x50mm, Waters
Retention time: 12.4 min
Base peak: 1002.5178
Precursor m/z: 1002.5183
Precursor type: [M+H]+
m/z	relative intensity	assigned
70.0651	3	C4H8N+
74.0236	12	C2H4NO2+
74.0964	1	C4H12N+
77.0385	16	C6H5+
79.0542	141	C6H7+
80.0495	19	C5H6N+
81.0335	2	C5H5O+
81.0699	11	C6H9+
82.0287	10	C4H4NO+
82.0651	93	C5H8N+
84.0444	172	C4H6NO+
85.0284	8	C4H5O2+
86.0964	346	C5H12N+
91.0542	464	C7H7+
92.062	5	C7H8+
93.0698	216	C7H9+
94.0651	29	C6H8N+
95.0491	96	C6H7O+
95.0855	21	C7H11+
96.0444	6	C5H6NO+
96.0808	13	C6H10N+
97.0761	4	C5H9N2+
98.0599	4	C5H8NO+
99.0917	90	C5H11N2+
101.0708	4	C4H9N2O+
102.0463	7	C8H6+
102.055	20	C4H8NO2+
103.0542	452	C8H7+
104.0577	1	C3H8N2O2+
105.0699	393	C8H9+
106.0651	4	C7H8N+
107.0855	999	C8H11+
108.0443	1	C6H6NO+
108.0682	6	C6H8N2+
108.0806	13	C7H10N+
109.0647	55	C7H9O+
110.06	57	C6H8NO+
110.0962	7	C7H12N+
111.0553	1	C5H7N2O+
111.0915	1	C6H11N2+
112.0392	6	C5H6NO2+
112.0756	9	C6H10NO+
112.112	1	C7H14N+
113.0233	33	C5H5O3+
113.071	13	C5H9N2O+
115.0542	59	C9H7+
116.062	6	C9H8+
117.0698	132	C9H9+
118.0651	10	C8H8N+
118.0776	1	C9H10+
119.0491	100	C8H7O+
119.0604	12	C7H7N2+
119.0855	47	C9H11+
120.057	11	C8H8O+
120.0807	13	C8H10N+
120.0931	8	C9H12+
121.0648	20	C8H9O+
121.076	37	C7H9N2+
121.101	17	C9H13+
122.06	14	C7H8NO+
122.0837	3	C7H10N2+
122.0964	18	C8H12N+
123.0438	1	C7H7O2+
123.0804	5	C8H11O+
123.0917	17	C7H11N2+
124.0756	28	C7H10NO+
124.112	23	C8H14N+
125.071	7	C6H9N2O+
126.0548	3	C6H8NO2+
127.0866	809	C6H11N2O+
128.0343	4	C5H6NO3+
128.0621	28	C10H8+
128.0704	19	C6H10NO2+
129.0698	31	C10H9+
130.0499	26	C5H8NO3+
130.0653	11	C9H8N+
130.0776	10	C10H10+
131.0855	77	C10H11+
132.0809	12	C9H10N+
133.0649	2	C9H9O+
133.1012	37	C10H13+
134.06	4	C8H8NO+
134.0964	6	C9H12N+
135.0804	394	C9H11O+
135.1167	350	C10H15+
136.0756	589	C8H10NO+
137.071	8	C7H9N2O+
137.0786	1	CH9N6O2+
137.096	1	C9H13O+
138.0548	88	C7H8NO2+
139.0864	12	C7H11N2O+
140.0706	11	C7H10NO2+
141.0651	2	C4H7N5O+
141.07	8	C11H9+
141.1019	2	C7H13N2O+
142.0776	2	C11H10+
143.0856	32	C11H11+
144.0571	1	C10H8O+
144.0808	3	C10H10N+
144.0934	1	C11H12+
145.0647	9	C10H9O+
145.1012	49	C11H13+
146.06	41	C9H8NO+
146.0964	38	C10H12N+
146.109	12	C11H14+
147.0439	1	C9H7O2+
147.0681	1	C9H9NO+
147.0805	4	C10H11O+
147.0919	1	C9H11N2+
147.1041	1	C10H13N+
147.1167	1	C11H15+
148.0756	4	C9H10NO+
148.112	4	C10H14N+
149.0709	72	C8H9N2O+
150.0549	4	C8H8NO2+
150.0916	2	C9H12NO+
150.1278	4	C10H16N+
151.0865	11	C8H11N2O+
152.0619	1	C12H8+
152.0706	5	C8H10NO2+
152.1069	4	C9H14NO+
153.0701	3	C12H9+
153.1028	1	C8H13N2O+
153.1387	1	C9H17N2+
154.0777	1	C12H10+
155.0812	109	C7H11N2O2+
156.0653	1	C7H10NO3+
157.1011	4	C12H13+
157.1335	14	C8H17N2O+
158.0964	6	C11H12N+
159.068	1	C10H9NO+
159.0803	18	C11H11O+
159.1167	16	C12H15+
160.0756	2	C10H10NO+
160.112	6	C11H14N+
161.096	14	C11H13O+
161.1323	1	C12H17+
162.0548	10	C9H8NO2+
162.0912	37	C10H12NO+
162.1275	14	C11H16N+
163.0862	5	C9H11N2O+
163.1116	96	C11H15O+
164.0704	6	C9H10NO2+
164.1066	1	C10H14NO+
165.0545	1	C9H9O3+
165.0702	12	C13H9+
165.1018	1	C9H13N2O+
166.0779	9	C13H10+
167.0813	250	C8H11N2O2+
168.0656	18	C8H10NO3+
168.0933	1	C13H12+
169.1009	5	C13H13+
171.0802	5	C12H11O+
171.1167	4	C13H15+
172.1119	1	C12H14N+
173.096	15	C12H13O+
174.0913	13	C11H12NO+
174.1037	4	C12H14O+
174.1279	2	C12H16N+
175.0867	1	C10H11N2O+
176.0707	1	C10H10NO2+
176.1069	23	C11H14NO+
178.0784	1	H12N5O6+
178.086	5	C10H12NO2+
178.1225	2	C11H16NO+
179.0857	11	C14H11+
180.0932	9	C14H12+
181.1015	17	C14H13+
181.1335	23	C10H17N2O+
182.081	1	C9H12NO3+
183.1165	1	C14H15+
184.1119	2	C13H14N+
186.0761	1	C8H12NO4+
186.0911	4	C12H12NO+
186.1274	1	C13H16N+
187.1118	4	C13H15O+
188.1069	2	C12H14NO+
188.1431	5	C13H18N+
190.1225	8	C12H16NO+
190.159	4	C13H20N+
192.0654	7	C10H10NO3+
192.0932	2	C15H12+
192.1132	1	C10H14N3O+
193.1006	5	C15H13+
194.1087	4	C15H14+
194.1649	8	C11H20N3+
195.0762	90	C9H11N2O3+
195.1166	17	C15H15+
196.0603	20	C9H10NO4+
200.1063	1	C13H14NO+
200.143	4	C14H18N+
202.0858	15	C12H12NO2+
203.1302	2	C13H17NO+
204.1381	8	C13H18NO+
207.1162	5	C16H15+
208.1245	1	C16H16+
209.1282	8	C11H17N2O2+
211.0713	8	C9H11N2O4+
213.0868	161	C9H13N2O4+
217.1008	1	C17H13+
218.1539	15	C14H20NO+
219.1124	7	C12H15N2O2+
220.1076	1	C11H14N3O2+
221.0924	1	C11H13N2O3+
222.1603	2	C12H20N3O+
223.1073	2	C11H15N2O3+
226.1588	22	C16H20N+
228.1383	1	C15H18NO+
229.1332	1	C14H17N2O+
232.1243	2	C18H16+
237.1636	5	C18H21+
239.0659	14	C10H11N2O5+
239.1018	2	C11H15N2O4+
243.1338	1	C11H19N2O4+
246.1481	1	C15H20NO2+
247.1074	2	C13H15N2O3+
248.0916	12	C13H14NO4+
257.1275	1	C15H17N2O2+
265.1178	10	C13H17N2O4+
319.2008	1	C18H27N2O3+
