Mass spectrum: Hesperidin; LC-ESI-QTOF; MS2; CE 10 ev; [M+H]+
Name: Hesperidin
Formula: C28H34O15
Exact mass: 610.18977
SMILES: CC1C(C(C(C(O1)OCC2C(C(C(C(O2)OC3=CC(=C4C(=O)CC(OC4=C3)C5=CC(=C(C=C5)OC)O)O)O)O)O)O)O)O
InChI: InChI=1S/C28H34O15/c1-10-21(32)23(34)25(36)27(40-10)39-9-19-22(33)24(35)26(37)28(43-19)41-12-6-14(30)20-15(31)8-17(42-18(20)7-12)11-3-4-16(38-2)13(29)5-11/h3-7,10,17,19,21-30,32-37H,8-9H2,1-2H3
Instrument: Agilent 1200 RRLC; Agilent 6520 QTOF
Instrument type: LC-ESI-QTOF
Ms type: MS2
Ion mode: POSITIVE
Collision energy: 10 ev
Column name: Agilent C8 Cartridge Column 2.1X30mm 3.5 micron (guard); Agilent SB-Aq 2.1x50mm 1.8 micron (analytical)
Retention time: 5.670
Base peak: 303
Precursor m/z: 611.1971
Precursor type: [M+H]+
m/z	relative intensity
129.0522	118
147.0603	67
263.0547	38
281.0641	83
303.0844	999
303.1373	74
345.101	105
369.0946	116
395.1021	33
413.1185	221
431.1237	109
431.1514	51
447.131	36
449.1347	171
465.1317	132
465.1504	74
611.1975	39
