Mass spectrum: Atenolol acid; LC-ESI-QTOF; MS2; CE: 10 eV; R=35000; [M+H]+
Name: Atenolol acid
Name: Metoprolol acid
Name: 2-[4-[2-hydroxy-3-(propan-2-ylamino)propoxy]phenyl]acetic acid
Formula: C14H21NO4
Exact mass: 267.1470582
SMILES: CC(C)NCC(O)COC1=CC=C(CC(O)=O)C=C1
InChI: InChI=1S/C14H21NO4/c1-10(2)15-8-12(16)9-19-13-5-3-11(4-6-13)7-14(17)18/h3-6,10,12,15-16H,7-9H2,1-2H3,(H,17,18)
Instrument: Bruker maXis Impact
Instrument type: LC-ESI-QTOF
Ms type: MS2
Ion mode: POSITIVE
Ionization: ESI
Fragmentation mode: CID
Collision energy: 10 eV
Resolution: 35000
Column name: Acclaim RSLC C18 2.2um, 2.1x100mm, Thermo
Retention time: 3.8 min
Base peak: 268.1542
Precursor m/z: 268.1543
Precursor type: [M+H]+
m/z	relative intensity	assigned
145.0636	1	C10H9O+
191.0694	5	C11H11O3+
226.1065	5	C11H16NO4+
250.1429	2	C14H20NO3+
268.154	999	C14H22NO4+
269.1576	130	C13[13]CH22NO4+
270.1604	12	C12[13]C2H22NO4+
