Mass spectrum: Fluometuron; LC-ESI-QFT; MS2; CE: 45; R=35000; [M-H]-
Name: Fluometuron
Name: 1,1-dimethyl-3-[3-(trifluoromethyl)phenyl]urea
Formula: C10H11F3N2O
Exact mass: 232.08235
SMILES: CN(C)C(=O)NC1=CC=CC(=C1)C(F)(F)F
InChI: InChI=1S/C10H11F3N2O/c1-15(2)9(16)14-8-5-3-4-7(6-8)10(11,12)13/h3-6H,1-2H3,(H,14,16)
Instrument: Q Exactive Plus Orbitrap Thermo Scientific
Instrument type: LC-ESI-QFT
Ms type: MS2
Ion mode: NEGATIVE
Ionization: ESI
Fragmentation mode: HCD
Collision energy: 45 (nominal)
Resolution: 35000
Column name: XBridge C18 3.5um, 2.1x50mm, Waters
Retention time: 8.0 min
Base peak: 231.0748
Precursor m/z: 231.0751
Precursor type: [M-H]-
m/z	relative intensity	assigned
134.0413	1	C8H5FN-
138.0164	1	C7H2F2N-
142.0473	7	C7H6F2N-
145.0272	1	C7H4F3-
146.0048	7	C8HFNO-
154.0474	11	C8H6F2N-
160.038	133	C7H5F3N-
166.011	105	C8H2F2NO-
168.0264	2	C8H4F2NO-
171.0568	2	C10H7N2O-
184.0216	4	C8H4F2NO2-
186.0172	999	C8H3F3NO-
187.0205	1	C6H3F2N3O2-
188.0327	9	C8H5F3NO-
191.0624	3	C10H8FN2O-
211.0691	6	C10H9F2N2O-
215.0446	1	C9H6F3N2O-
230.0067	2	C7HF3N4O2-
231.0752	544	C10H10F3N2O-
232.0781	1	C8H10F2N4O2-
