Mass spectrum: beta-Nicotinamide adenine dinucleotide; LC-ESI-QTOF; MS2; CE:Ramp 5-60 V; [M-H]-
Name: beta-Nicotinamide adenine dinucleotide
Name: beta-NAD
Name: beta-DPN
Name: Diphosphopyridine nucleotide
Name: Coenzyme1
Name: Cozymase
Name: Nadide
Name: beta-Nicotinamide adenine dinucleotide oxidized form
Class: Natural Product; Nicotinamide; Dinucleotides
Formula: C21H27N7O14P2
Exact mass: 663.10912
SMILES: NC(=O)c(c5)c[n+1](cc5)C(O1)C(O)C(O)C(COP([O-1])(=O)OP(O)(=O)OCC(O2)C(O)C(O)C2n(c4)c(n3)c(n4)c(N)nc3)1
InChI: InChI=1S/C21H27N7O14P2/c22-17-12-19(25-7-24-17)28(8-26-12)21-16(32)14(30)11(41-21)6-39-44(36,37)42-43(34,35)38-5-10-13(29)15(31)20(40-10)27-3-1-2-9(4-27)18(23)33/h1-4,7-8,10-11,13-16,20-21,29-32H,5-6H2,(H5-,22,23,24,25,33,34,35,36,37)/t10-,11-,13-,14-,15-,16-,20-,21-/m1/s1
Instrument: UPLC Q-Tof Premier, Waters
Instrument type: LC-ESI-QTOF
Ms type: MS2
Ion mode: NEGATIVE
Collision energy: Ramp 5-60 V
Ionization: ESI
Precursor m/z: 662.10132
Precursor type: [M-H]-
m/z	relative intensity
78.9601	296
96.9702	64
134.0472	146
158.9254	232
272.9580	203
328.0471	141
346.0551	81
408.0130	120
426.0234	102
540.0526	999
662.1013	70
