Mass spectrum: GlcNAc2Man2GlcNAcManGlcNAc2; LC-ESI-QQ; MS2; CE:35V; Amide
Name: GlcNAc2Man2GlcNAcManGlcNAc2
Name: GlcNAc-beta-1-2Man-alpha-1-6(GlcNAc-beta-1-4)(GlcNAc-beta-1-2Man-alpha-1-3)Man-beta-1-4GlcNAc-beta-1-4GlcNAc
Class: Natural Product; Oligosaccharide; N-linked glycan; Complex type
Formula: C58H97N5O41
Exact mass: 1519.56590
SMILES: OC(C7O)C(CO)OC(C7OC(C8NC(C)=O)OC(C(O)C8O)CO)OC(C(O)3)C(OC(O6)C(C(C(O)C6CO)O)NC(C)=O)C(OC3OC(C5CO)C(O)C(C(O5)OC(C4O)C(CO)OC(O)C(NC(C)=O)4)NC(C)=O)COC(O2)C(C(O)C(C2CO)O)OC(C(NC(C)=O)1)OC(C(O)C(O)1)CO
InChI: InChI=1S/C58H97N5O41/c1-14(71)59-27-40(84)45(24(11-69)91-51(27)89)99-55-31(63-18(5)75)41(85)46(25(12-70)97-55)100-56-44(88)48(102-58-50(43(87)36(80)23(10-68)96-58)104-54-30(62-17(4)74)39(83)34(78)21(8-66)94-54)47(101-52-28(60-15(2)72)37(81)32(76)19(6-64)92-52)26(98-56)13-90-57-49(42(86)35(79)22(9-67)95-57)103-53-29(61-16(3)73)38(82)33(77)20(7-65)93-53/h19-58,64-70,76-89H,6-13H2,1-5H3,(H,59,71)(H,60,72)(H,61,73)(H,62,74)(H,63,75)/t19-,20-,21-,22-,23-,24-,25-,26-,27-,28-,29-,30-,31-,32-,33-,34-,35-,36-,37-,38-,39-,40-,41-,42+,43+,44+,45-,46-,47-,48-,49+,50+,51-,52+,53+,54+,55+,56+,57+,58-/m1/s1
Instrument: 2695 HPLC Quadro Micro API, Waters
Instrument type: LC-ESI-QQ
Ms type: MS2
Ion mode: POSITIVE
Collision energy: 35.0 V
Ionization: ESI
Column name: TSK-GEL Amide-80 2.0 mm X 250 mm (TOSOH)
Retention time: 24.612 min
Derivative form: C67H108N6O42
Derivative mass: 1668.64996
Derivative type: ABEE (p-Aminobenzoic acid ethyl ester)
Precursor m/z: 1670.00
Precursor type: [M+H]+
m/z	relative intensity
365.1	114
365.8	417
366.4	49
370.0	87
370.7	559
371.5	58
383.7	61
527.0	85
527.7	199
546.0	40
568.2	382
569.1	308
573.0	292
573.7	999
574.4	235
575.1	69
688.8	40
689.8	85
729.7	167
730.6	268
731.5	120
734.9	67
736.0	214
891.4	54
892.2	155
893.2	116
894.1	37
897.2	68
898.2	44
932.5	36
933.6	75
935.2	41
937.7	80
938.9	179
1060.1	44
1093.9	45
1094.8	191
1095.8	239
1096.5	80
1099.1	58
1099.9	247
1100.9	255
1101.9	120
1260.8	47
1261.5	184
1262.5	404
1263.3	242
1264.2	81
1296.8	54
1297.7	141
1298.9	141
1299.8	61
1302.9	46
1303.9	112
1463.9	93
1464.8	333
1465.5	108
1466.3	251
1467.2	60
1666.9	62
1667.9	104
1669.0	110
1669.8	35
