Mass spectrum: Lincomycin; LC-ESI-QTOF; MS2; CE: Ramp 23.7-35.6 eV; R=35000; [M+H]+
Name: Lincomycin
Name: (2S,4R)-N-[(1R,2R)-2-hydroxy-1-[(2R,3R,4S,5R,6R)-3,4,5-trihydroxy-6-methylsulfanyloxan-2-yl]propyl]-1-methyl-4-propylpyrrolidine-2-carboxamide
Formula: C18H34N2O6S
Exact mass: 406.2138
SMILES: CCC[C@@H]1C[C@H](N(C1)C)/C(=N\[C@@H]([C@@H]2[C@@H]([C@@H]([C@H]([C@H](O2)SC)O)O)O)[C@@H](C)O)/O
InChI: InChI=1S/C18H34N2O6S/c1-5-6-10-7-11(20(3)8-10)17(25)19-12(9(2)21)16-14(23)13(22)15(24)18(26-16)27-4/h9-16,18,21-24H,5-8H2,1-4H3,(H,19,25)/t9-,10-,11+,12-,13+,14-,15-,16-,18-/m1/s1
Instrument: Bruker maXis Impact
Instrument type: LC-ESI-QTOF
Ms type: MS2
Ion mode: POSITIVE
Ionization: ESI
Fragmentation mode: CID
Collision energy: Ramp 23.7-35.6 eV
Resolution: 35000
Column name: Acclaim RSLC C18 2.2um, 2.1x100mm, Thermo
Retention time: 4.2 min
Base peak: 407.2237
Precursor m/z: 407.221
Precursor type: [M+H]+
m/z	relative intensity	assigned
124.1117	7	C8H14N+
126.1278	999	C8H16N+
127.1312	136	C8H17N+
128.1333	5	C4H20N2S+
148.0759	9	C9H10NO+
172.1336	11	C9H18NO2+
278.1179	9	C12H22O5S+
296.1303	7	C15H22NO3S+
299.1989	7	C12H31N2O4S+
317.2095	16	C12H33N2O5S+
359.2199	111	C14H35N2O6S+
360.2251	19	C17H32N2O6+
389.2128	18	C18H33N2O5S+
407.2237	266	C18H35N2O6S+
408.2268	73	C17H34N3O6S+
409.2238	19	C17H35N3O6S+
