Mass spectrum: Man8GlcNAc-III; LC-ESI-QQ; MS2; CE:50V; Amide
Name: Man8GlcNAc-III
Name: Man-alpha-1-6(Man-alpha-1-2Man-alpha-1-3)Man-alpha-1-6(Man-alpha-1-2Man-alpha-1-2Man-alpha-1-3)Man-beta-1-4GlcNAc
Class: Natural Product; Oligosaccharide; N-linked glycan; High-mannose type
Formula: C56H95NO46
Exact mass: 1517.51252
SMILES: O(C(COC(O8)C(O)C(C(C(COC(C9O)OC(CO)C(C9O)O)8)O)OC(C(OC(C(O)7)OC(CO)C(O)C7O)6)OC(CO)C(O)C(O)6)2)C(C(O)C(OC(O3)C(OC(O5)C(C(O)C(C(CO)5)O)OC(O4)C(C(C(C(CO)4)O)O)O)C(O)C(O)C3CO)C(O)2)OC(C1O)C(CO)OC(O)C(NC(C)=O)1
InChI: InChI=1/C56H95NO46/c1-11(65)57-21-30(74)42(18(8-64)89-48(21)86)98-53-41(85)44(100-55-47(36(80)27(71)16(6-62)94-55)103-56-46(35(79)26(70)17(7-63)95-56)102-52-39(83)33(77)24(68)14(4-60)92-52)29(73)20(97-53)10-88-50-40(84)43(28(72)19(96-50)9-87-49-37(81)31(75)22(66)12(2-58)90-49)99-54-45(34(78)25(69)15(5-61)93-54)101-51-38(82)32(76)23(67)13(3-59)91-51/h12-56,58-64,66-86H,2-10H2,1H3,(H,57,65)/t12-,13-,14-,15-,16-,17-,18-,19-,20-,21-,22-,23-,24-,25-,26-,27-,28-,29-,30-,31+,32+,33+,34+,35+,36+,37+,38+,39+,40+,41+,42-,43+,44+,45+,46+,47+,48-,49+,50+,51-,52-,53+,54-,55-,56-/m1/s1/f/h57H
Instrument: 2695 HPLC Quadro Micro API, Waters
Instrument type: LC-ESI-QQ
Ms type: MS2
Ion mode: POSITIVE
Collision energy: 50.0 V
Ionization: ESI
Column name: TSK-GEL Amide-80 2.0 mm X 250 mm (TOSOH)
Retention time: 35.215 min
Derivative form: C65H106N2O47
Derivative mass: 1666.59659
Derivative type: ABEE (p-Aminobenzoic acid ethyl ester)
Precursor m/z: 1667.00
Precursor type: [M+H]+
m/z	relative intensity
324.9	93
370.5	378
371.2	999
371.9	131
372.5	55
487.1	41
532.8	344
533.5	172
694.3	80
695.1	63
856.2	46
1019.0	47
