Mass spectrum: Man6GlcNAc-I; LC-ESI-QQ; MS2; CE:30V; ODS
Name: Man6GlcNAc-I
Name: Man-alpha-1-2Man-alpha-1-6(Man-alpha-1-3)Man-alpha-1-6(Man-alpha-1-3)Man-beta-1-4GlcNAc
Class: Natural Product; Oligosaccharide; N-linked glycan; High-mannose type
Formula: C44H75NO36
Exact mass: 1193.40688
SMILES: N(C(C(O)1)C(OC(CO)C1OC(C(O)2)OC(COC(O4)C(C(OC(O7)C(O)C(C(O)C(CO)7)O)C(C4COC(C(OC(O6)C(C(O)C(C6CO)O)O)5)OC(CO)C(O)C5O)O)O)C(C2OC(O3)C(C(O)C(C(CO)3)O)O)O)O)C(C)=O
InChI: InChI=1/C44H75NO36/c1-9(51)45-17-24(58)34(14(6-50)71-38(17)68)78-43-33(67)36(80-41-30(64)26(60)19(53)11(3-47)73-41)23(57)16(77-43)7-69-39-32(66)35(79-40-29(63)25(59)18(52)10(2-46)72-40)22(56)15(76-39)8-70-44-37(28(62)21(55)13(5-49)75-44)81-42-31(65)27(61)20(54)12(4-48)74-42/h10-44,46-50,52-68H,2-8H2,1H3,(H,45,51)/t10-,11-,12-,13-,14-,15-,16-,17-,18-,19-,20-,21-,22-,23-,24-,25+,26+,27+,28+,29+,30+,31+,32+,33+,34-,35+,36+,37+,38-,39+,40-,41-,42-,43+,44+/m1/s1/f/h45H
Instrument: 2695 HPLC Quadro Micro API, Waters
Instrument type: LC-ESI-QQ
Ms type: MS2
Ion mode: POSITIVE
Collision energy: 30.0 V
Ionization: ESI
Column name: Wakosil 5C18-200 2.0 mm X 250 mm (Wako)
Retention time: 12.561 min
Derivative form: C53H86N2O37
Derivative mass: 1342.49094
Derivative type: ABEE (p-Aminobenzoic acid ethyl ester)
Precursor m/z: 1343.30
Precursor type: [M+H]+
m/z	relative intensity
370.9	599
371.5	103
372.2	307
532.5	144
533.8	87
694.8	185
856.3	104
857.0	189
858.0	98
858.9	86
1019.3	167
1020.7	95
1179.9	80
1180.9	248
1182.1	207
1341.5	376
1342.1	93
1342.8	999
1343.6	471
1344.3	884
1345.2	253
