Mass spectrum: Sulfathiazole; LC-ESI-QTOF; MS2; CE: Ramp 20.0-30.0 eV; R=35000; [M+H]+
Name: Sulfathiazole
Name: 4-amino-N-(1,3-thiazol-2-yl)benzenesulfonamide
Formula: C9H9N3O2S2
Exact mass: 255.0136
SMILES: c1cc(ccc1N)S(=O)(=O)Nc2nccs2
InChI: InChI=1S/C9H9N3O2S2/c10-7-1-3-8(4-2-7)16(13,14)12-9-11-5-6-15-9/h1-6H,10H2,(H,11,12)
Instrument: Bruker maXis Impact
Instrument type: LC-ESI-QTOF
Ms type: MS2
Ion mode: POSITIVE
Ionization: ESI
Fragmentation mode: CID
Collision energy: Ramp 20.0-30.0 eV
Resolution: 35000
Column name: Acclaim RSLC C18 2.2um, 2.1x100mm, Thermo
Retention time: 3.7 min
Base peak: 256.022
Precursor m/z: 256.0209
Precursor type: [M+H]+
m/z	relative intensity	assigned
45.0339	16	C2H5O+
53.0384	6	C4H5+
54.0336	5	C3H4N+
55.0179	6	C3H3O+
65.0385	29	C5H5+
68.0489	92	C4H6N+
78.0336	11	C5H4N+
79.0172	9	C5H3O+
89.0598	14	C4H9O2+
92.0491	84	C6H6N+
96.0452	6	C5H6NO+
101.017	42	C3H5N2S+
108.0455	141	C6H6NO+
109.0471	13	C2H9N2OS+
110.0608	45	C6H8NO+
120.0551	26	C6H6N3+
140.0176	10	C6H6NOS+
156.0113	999	C6H6NO2S+
157.0146	88	C7H9S2+
158.0069	38	C9H4NS+
162.9631	10	C3H3N2O2S2+
190.0428	14	C9H8N3S+
256.0209	96	C9H10N3O2S2+
257.0258	7	C8H9N4O2S2+
258.0174	7	C9H10N2O3S2+
