Mass spectrum: Microcystin-YR; LC-ESI-QFT; MS2; CE: 30; R=35000; [M-H]-
Name: Microcystin-YR
Name: (5R,8S,11R,12R,15S,18S,19S,22R)-15-[3-(diaminomethylideneamino)propyl]-8-[(4-hydroxyphenyl)methyl]-18-[(1E,3E,5S,6S)-6-methoxy-3,5-dimethyl-7-phenylhepta-1,3-dienyl]-1,5,12,19-tetramethyl-2-methylidene-3,6,9,13,16,20,25-heptaoxo-1,4,7,10,14,17,21-heptazacyclopentacosane-11,22-dicarboxylic acid
Formula: C52H72N10O13
Exact mass: 1044.52803
SMILES: O=C2N[C@@H](\C=C\C(=C\[C@H](C)[C@@H](OC)Cc1ccccc1)C)[C@@H](C(=O)N[C@@H](C(=O)O)CCC(=O)N(/C(=C)C(=O)N[C@@H](C(=O)N[C@H](C(=O)N[C@@H](C(=O)O)[C@H](C(=O)N[C@H]2CCC/N=C(\N)N)C)Cc3ccc(O)cc3)C)C)C
InChI: InChI=1S/C52H72N10O13/c1-28(25-29(2)41(75-8)27-34-13-10-9-11-14-34)16-21-37-30(3)44(65)59-39(50(71)72)22-23-42(64)62(7)33(6)47(68)56-32(5)46(67)60-40(26-35-17-19-36(63)20-18-35)49(70)61-43(51(73)74)31(4)45(66)58-38(48(69)57-37)15-12-24-55-52(53)54/h9-11,13-14,16-21,25,29-32,37-41,43,63H,6,12,15,22-24,26-27H2,1-5,7-8H3,(H,56,68)(H,57,69)(H,58,66)(H,59,65)(H,60,67)(H,61,70)(H,71,72)(H,73,74)(H4,53,54,55)/b21-16+,28-25+/t29-,30-,31+,32+,37-,38-,39+,40-,41-,43+/m0/s1
Instrument: Q Exactive Orbitrap Thermo Scientific
Instrument type: LC-ESI-QFT
Ms type: MS2
Ion mode: NEGATIVE
Ionization: ESI
Fragmentation mode: HCD
Collision energy: 30 (nominal)
Resolution: 35000
Column name: XBridge C18 3.5um, 2.1x50mm, Waters
Retention time: 10.0 min
Base peak: 1043.5209
Precursor m/z: 1043.5208
Precursor type: [M-H]-
m/z	relative intensity	assigned
73.0296	3	C3H5O2-
73.0408	1	C2H5N2O-
74.0248	3	C2H4NO2-
82.0298	4	C4H4NO-
84.0455	7	C4H6NO-
86.0248	1	C3H4NO2-
87.0564	4	C3H7N2O-
93.0346	1	C6H5O-
94.0298	1	C5H4NO-
98.0249	2	C4H4NO2-
98.0613	2	C5H8NO-
99.0201	3	C3H3N2O2-
99.0563	10	C4H7N2O-
100.0041	1	C3H2NO3-
100.0404	6	C4H6NO2-
109.0408	99	C5H5N2O-
110.0247	30	C5H4NO2-
111.0563	1	C5H7N2O-
112.0405	13	C5H6NO2-
113.0357	13	C4H5N2O2-
119.0502	6	C8H7O-
123.0565	5	C6H7N2O-
124.0403	37	C6H6NO2-
125.0355	4	C5H5N2O2-
125.0721	1	C6H9N2O-
127.0514	16	C5H7N2O2-
128.0353	999	C5H6NO3-
129.0387	3	H7N3O5-
130.051	4	C5H8NO3-
131.0867	6	C10H11-
135.0565	1	C7H7N2O-
136.0515	1	C6H6N3O-
137.0718	1	C7H9N2O-
138.0561	5	C7H8NO2-
138.0673	1	C6H8N3O-
139.0515	4	C6H7N2O2-
140.0719	2	C7H10NO2-
141.0669	3	C6H9N2O2-
142.0508	3	C6H8NO3-
142.062	4	C5H8N3O2-
144.0778	14	C5H10N3O2-
145.0619	3	C5H9N2O3-
149.0719	1	C8H9N2O-
150.056	3	C8H8NO2-
151.0877	1	C8H11N2O-
152.0464	1	C6H6N3O2-
152.0827	2	C7H10N3O-
153.0668	31	C7H9N2O2-
155.0824	2	C7H11N2O2-
155.0937	5	C6H11N4O-
156.078	6	C6H10N3O2-
158.0935	2	C6H12N3O2-
162.0559	57	C9H8NO2-
163.0876	3	C9H11N2O-
164.0714	2	C9H10NO2-
165.0671	4	C8H9N2O2-
166.0622	3	C7H8N3O2-
166.0983	1	C8H12N3O-
167.0458	4	C7H7N2O3-
167.0824	10	C8H11N2O2-
168.1141	1	C8H14N3O-
169.0616	2	C7H9N2O3-
170.057	6	C6H8N3O3-
170.0933	23	C7H12N3O2-
171.0774	7	C7H11N2O3-
172.1202	1	C6H14N5O-
177.0668	1	C9H9N2O2-
179.0826	15	C9H11N2O2-
180.0664	5	C9H10NO3-
180.0779	2	C8H10N3O2-
180.1143	3	C9H14N3O-
181.0618	17	C8H9N2O3-
181.098	4	C9H13N2O2-
182.1046	2	C7H12N5O-
183.0775	2	C8H11N2O3-
184.0615	23	C8H10NO4-
184.0723	3	C7H10N3O3-
184.109	1	C8H14N3O2-
193.1092	1	C9H13N4O-
194.0933	1	C9H12N3O2-
198.0885	8	C8H12N3O3-
198.0995	6	C7H12N5O2-
198.1247	2	C9H16N3O2-
199.0724	3	C8H11N2O4-
205.0616	6	C10H9N2O3-
205.0979	5	C11H13N2O2-
205.1083	1	C9H17O5-
206.0933	9	C10H12N3O2-
208.1095	2	C10H14N3O2-
209.1043	19	C9H13N4O2-
210.0886	6	C9H12N3O3-
210.1361	2	C9H16N5O-
211.0724	24	C9H11N2O4-
212.1044	1	C9H14N3O3-
215.0825	3	C12H11N2O2-
216.0666	3	C12H10NO3-
220.1093	1	C11H14N3O2-
221.0931	4	C11H13N2O3-
222.1359	2	C10H16N5O-
223.1093	1	C11H15N2O3-
223.1197	7	C10H15N4O2-
224.1039	3	C10H14N3O3-
227.115	43	C9H15N4O3-
231.0889	5	C11H11N4O2-
233.093	1	C12H13N2O3-
235.1091	1	C12H15N2O3-
238.1198	2	C11H16N3O3-
239.1034	2	C11H15N2O4-
240.1467	2	C10H18N5O2-
245.0928	1	C13H13N2O3-
248.1037	2	C12H14N3O3-
248.1153	9	C11H14N5O2-
249.0991	5	C11H13N4O3-
250.1197	20	C12H16N3O3-
250.1318	1	C13H18N2O3-
255.1098	1	C10H15N4O4-
262.1199	2	C13H16N3O3-
264.0992	1	C12H14N3O4-
266.1262	7	C11H16N5O3-
267.0986	1	C11H9N9-
276.0986	5	C13H14N3O4-
290.1148	5	C14H16N3O4-
333.1572	3	C2H23N9O10-
