Mass spectrum: Microcystin-LY; LC-ESI-QFT; MS2; CE: 45; R=35000; [M-H]-
Name: Microcystin-LY
Name: 15-[(4-hydroxyphenyl)methyl]-18-[(1Z,3E)-6-methoxy-3,5-dimethyl-7-phenylhepta-1,3-dienyl]-1,5,12,19-tetramethyl-2-methylidene-8-(2-methylpropyl)-3,6,9,13,16,20,25-heptaoxo-1,4,7,10,14,17,21-heptazacyclopentacosane-11,22-dicarboxylic acid
Formula: C52H71N7O13
Exact mass: 1001.51099
SMILES: O=C(O)C2NC(=O)C(NC(=O)C(NC(=O)\C(=C)N(C(=O)CCC(C(=O)O)NC(=O)C(C)C(/C=C\C(=C\C(C)C(OC)Cc1ccccc1)C)NC(=O)C(NC(=O)C2C)Cc3ccc(O)cc3)C)C)CC(C)C
InChI: InChI=1S/C52H71N7O13/c1-28(2)24-40-50(67)58-44(52(70)71)32(6)46(63)56-41(26-36-17-19-37(60)20-18-36)49(66)54-38(21-16-29(3)25-30(4)42(72-10)27-35-14-12-11-13-15-35)31(5)45(62)55-39(51(68)69)22-23-43(61)59(9)34(8)48(65)53-33(7)47(64)57-40/h11-21,25,28,30-33,38-42,44,60H,8,22-24,26-27H2,1-7,9-10H3,(H,53,65)(H,54,66)(H,55,62)(H,56,63)(H,57,64)(H,58,67)(H,68,69)(H,70,71)/b21-16-,29-25+
Instrument: Q Exactive Orbitrap Thermo Scientific
Instrument type: LC-ESI-QFT
Ms type: MS2
Ion mode: NEGATIVE
Ionization: ESI
Fragmentation mode: HCD
Collision energy: 45 (nominal)
Resolution: 35000
Column name: XBridge C18 3.5um, 2.1x50mm, Waters
Retention time: 12.5 min
Base peak: 1000.5046
Precursor m/z: 1000.5037
Precursor type: [M-H]-
m/z	relative intensity	assigned
70.0299	3	C3H4NO-
71.0139	1	C3H3O2-
71.0251	4	C2H3N2O-
72.0091	4	C2H2NO2-
72.0455	24	C3H6NO-
73.0295	22	C3H5O2-
73.0408	3	C2H5N2O-
74.0247	47	C2H4NO2-
80.0506	7	C5H6N-
81.0221	1	C4H3NO-
82.0298	27	C4H4NO-
82.0662	15	C5H8N-
83.0251	6	C3H3N2O-
84.0455	42	C4H6NO-
84.082	3	C5H10N-
85.0295	1	C4H5O2-
85.0407	5	C3H5N2O-
86.0247	4	C3H4NO2-
86.0613	3	C4H8NO-
87.0564	30	C3H7N2O-
88.0405	8	C3H6NO2-
91.0554	4	C7H7-
93.0346	10	C6H5O-
94.0297	3	C5H4NO-
95.0251	8	C4H3N2O-
96.0454	13	C5H6NO-
96.0819	3	C6H10N-
97.0045	1	C3HN2O2-
97.0408	23	C4H5N2O-
97.0773	1	C5H9N2-
98.0122	3	C3H2N2O2-
98.0247	13	C4H4NO2-
98.0612	15	C5H8NO-
99.02	6	C3H3N2O2-
99.0564	125	C4H7N2O-
100.0041	8	C3H2NO3-
100.0404	23	C4H6NO2-
100.0767	1	C5H10NO-
101.0721	5	C4H9N2O-
102.0561	5	C4H8NO2-
106.0423	2	C7H6O-
107.0502	4	C7H7O-
108.033	4	C5H4N2O-
108.0456	7	C6H6NO-
108.0819	1	C7H10N-
109.0171	4	C5H3NO2-
109.0408	9	C5H5N2O-
109.0772	8	C6H9N2-
110.0248	314	C5H4NO2-
111.0088	1	C5H3O3-
111.02	11	C4H3N2O2-
111.0324	1	C5H5NO2-
111.0564	18	C5H7N2O-
112.0404	68	C5H6NO2-
112.0768	17	C6H10NO-
113.0357	29	C4H5N2O2-
114.0925	3	C6H12NO-
117.0346	3	C8H5O-
119.0502	142	C8H7O-
120.0454	3	C7H6NO-
120.082	1	C8H10N-
121.0533	2	C7H7NO-
122.0247	6	C6H4NO2-
122.0486	4	C6H6N2O-
122.0612	9	C7H8NO-
122.0976	6	C8H12N-
123.0326	8	C6H5NO2-
123.0564	64	C6H7N2O-
124.0403	209	C6H6NO2-
125.0356	15	C5H5N2O2-
125.0594	1	C5H7N3O-
125.072	23	C6H9N2O-
126.056	6	C6H8NO2-
127.0514	61	C5H7N2O2-
127.0877	14	C6H11N2O-
128.0354	999	C5H6NO3-
129.1033	176	C6H13N2O-
130.051	14	C5H8NO3-
130.0872	26	C6H12NO2-
131.0866	40	C10H11-
133.0534	1	C8H7NO-
134.0612	8	C8H8NO-
135.0326	1	C7H5NO2-
135.0564	7	C7H7N2O-
136.0403	7	C7H6NO2-
136.0768	5	C8H10NO-
136.1132	6	C9H14N-
137.048	3	C7H7NO2-
137.0595	1	C6H7N3O-
137.072	11	C7H9N2O-
138.0435	16	C6H6N2O2-
138.056	18	C7H8NO2-
138.0925	1	C8H12NO-
139.0514	6	C6H7N2O2-
139.0876	118	C7H11N2O-
140.0717	13	C7H10NO2-
140.108	4	C8H14NO-
141.067	37	C6H9N2O2-
142.0508	9	C6H8NO3-
144.0453	3	C9H6NO-
145.0294	24	C9H5O2-
145.0618	4	C5H9N2O3-
146.0458	1	C5H8NO4-
146.0611	1	C9H8NO-
147.0563	1	C8H7N2O-
148.0766	3	C9H10NO-
149.0354	13	C7H5N2O2-
149.072	9	C8H9N2O-
150.0197	6	C7H4NO3-
150.0559	34	C8H8NO2-
150.0922	3	C9H12NO-
151.0512	4	C7H7N2O2-
151.0875	7	C8H11N2O-
152.0352	3	C7H6NO3-
152.0717	3	C8H10NO2-
152.083	11	C7H10N3O-
153.0668	132	C7H9N2O2-
153.1032	14	C8H13N2O-
154.0747	1	C7H10N2O2-
154.0872	1	C8H12NO2-
154.0984	3	C7H12N3O-
155.0825	69	C7H11N2O2-
155.1189	14	C8H15N2O-
157.0979	4	C7H13N2O2-
157.1345	5	C8H17N2O-
158.0933	3	C6H12N3O2-
160.0404	2	C9H6NO2-
162.0559	81	C9H8NO2-
163.0877	2	C9H11N2O-
164.059	3	C8H8N2O2-
164.0717	4	C9H10NO2-
164.083	1	C8H10N3O-
165.0668	14	C8H9N2O2-
165.1031	199	C9H13N2O-
166.0619	2	C7H8N3O2-
166.0871	9	C9H12NO2-
166.0983	7	C8H12N3O-
167.046	11	C7H7N2O3-
167.0824	40	C8H11N2O2-
167.1188	5	C9H15N2O-
169.0617	1	C7H9N2O3-
169.0981	2	C8H13N2O2-
169.1347	4	C9H17N2O-
170.0933	39	C7H12N3O2-
171.0773	4	C7H11N2O3-
171.1134	6	C8H15N2O2-
174.0923	1	C11H12NO-
175.0508	1	C9H7N2O2-
177.1029	4	C10H13N2O-
179.0825	5	C9H11N2O2-
179.119	8	C10H15N2O-
180.0779	6	C8H10N3O2-
180.1141	91	C9H14N3O-
181.0618	14	C8H9N2O3-
181.0981	12	C9H13N2O2-
181.1344	1	C10H17N2O-
182.1296	149	C9H16N3O-
183.1136	28	C9H15N2O2-
184.0616	4	C8H10NO4-
184.1091	1	C8H14N3O2-
185.0567	1	C7H9N2O4-
185.1293	1	C9H17N2O2-
186.0924	1	C12H12NO-
189.0667	1	C10H9N2O2-
194.13	4	C10H16N3O-
195.0774	1	C9H11N2O3-
195.1137	9	C10H15N2O2-
196.1452	3	C10H18N3O-
197.1297	4	C10H17N2O2-
198.1247	31	C9H16N3O2-
200.1404	107	C9H18N3O2-
201.1243	3	C9H17N2O3-
202.0874	4	C12H12NO2-
205.0618	7	C10H9N2O3-
205.0984	3	C11H13N2O2-
207.1012	2	C10H13N3O2-
208.109	13	C10H14N3O2-
210.0889	3	C9H12N3O3-
211.0725	11	C9H11N2O4-
212.1406	9	C10H18N3O2-
214.0875	1	C13H12NO2-
220.1089	2	C11H14N3O2-
222.1248	4	C11H16N3O2-
222.1612	5	C12H20N3O-
223.1094	1	C11H15N2O3-
224.1427	1	C13H20O3-
226.1199	10	C10H16N3O3-
229.0979	1	C13H13N2O2-
230.0822	1	C13H12NO3-
237.1645	2	C18H21-
240.1725	1	C12H22N3O2-
265.1672	6	C13H21N4O2-
