Mass spectrum: Man5GlcNAc-II; LC-ESI-QQ; MS2; CE:50V; ODS
Name: Man5GlcNAc-II
Name: Man-alpha-1-2Man-alpha-1-6Man-alpha-1-6(Man-alpha-1-3)Man-beta-1-9GlcNAc
Class: Natural Product; Oligosaccharide; N-linked glycan; High-mannose type
Formula: C38H65NO31
Exact mass: 1031.35405
SMILES: OC(C6O)C(C(OC6CO)OC(C1OCC(C(O)5)OC(C(O)C5O)OCC(O3)C(O)C(C(O)C(OC(C(CO)4)C(O)C(NC(C)=O)C(O)O4)3)OC(O2)C(O)C(C(O)C(CO)2)O)C(C(O)C(O1)CO)O)O
InChI: InChI=1/C38H65NO31/c1-8(44)39-15-21(50)30(12(5-43)62-33(15)59)68-37-29(58)31(69-35-27(56)22(51)16(45)9(2-40)63-35)20(49)14(67-37)7-60-34-26(55)24(53)19(48)13(66-34)6-61-38-32(25(54)18(47)11(4-42)65-38)70-36-28(57)23(52)17(46)10(3-41)64-36/h9-38,40-43,45-59H,2-7H2,1H3,(H,39,44)/t9-,10-,11-,12-,13-,14-,15-,16-,17-,18-,19-,20-,21-,22+,23+,24+,25+,26+,27+,28+,29+,30-,31+,32+,33-,34+,35-,36-,37+,38+/m1/s1/f/h39H
Instrument: 2695 HPLC Quadro Micro API, Waters
Instrument type: LC-ESI-QQ
Ms type: MS2
Ion mode: POSITIVE
Collision energy: 50.0 V
Ionization: ESI
Column name: Wakosil 5C18-200 2.0 mm X 250 mm (Wako)
Retention time: 14.878 min
Derivative form: C47H76N2O32
Derivative mass: 1180.43812
Derivative type: ABEE (p-Aminobenzoic acid ethyl ester)
Precursor m/z: 1181.02
Precursor type: [M+H]+
m/z	relative intensity
325.0	177
370.8	999
371.7	196
532.3	124
