Mass spectrum: Microcystin-LA; LC-ESI-QFT; MS2; CE: 15; R=35000; [M+H]+
Name: Microcystin-LA
Name: (5R,8S,11R,12S,15S,18S,19S,22R)-18-[(1E,3E,5S,6S)-6-methoxy-3,5-dimethyl-7-phenylhepta-1,3-dienyl]-1,5,12,15,19-pentamethyl-2-methylidene-8-(2-methylpropyl)-3,6,9,13,16,20,25-heptaoxo-1,4,7,10,14,17,21-heptazacyclopentacosane-11,22-dicarboxylic acid
Formula: C46H67N7O12
Exact mass: 909.48477
SMILES: O=C2N[C@@H](\C=C\C(=C\[C@H](C)[C@@H](OC)Cc1ccccc1)C)[C@@H](C(=O)N[C@@H](C(=O)O)CCC(=O)N(/C(=C)C(=O)N[C@@H](C(=O)N[C@H](C(=O)N[C@@H](C(=O)O)[C@@H](C(=O)N[C@H]2C)C)CC(C)C)C)C)C
InChI: InChI=1S/C46H67N7O12/c1-24(2)21-35-44(60)52-38(46(63)64)28(6)40(56)47-29(7)41(57)49-33(18-17-25(3)22-26(4)36(65-11)23-32-15-13-12-14-16-32)27(5)39(55)50-34(45(61)62)19-20-37(54)53(10)31(9)43(59)48-30(8)42(58)51-35/h12-18,22,24,26-30,33-36,38H,9,19-21,23H2,1-8,10-11H3,(H,47,56)(H,48,59)(H,49,57)(H,50,55)(H,51,58)(H,52,60)(H,61,62)(H,63,64)/b18-17+,25-22+/t26-,27-,28-,29-,30+,33-,34+,35-,36-,38+/m0/s1
Instrument: Q Exactive Orbitrap Thermo Scientific
Instrument type: LC-ESI-QFT
Ms type: MS2
Ion mode: POSITIVE
Ionization: ESI
Fragmentation mode: HCD
Collision energy: 15 (nominal)
Resolution: 35000
Column name: XBridge C18 3.5um, 2.1x50mm, Waters
Retention time: 12.2 min
Base peak: 910.4915
Precursor m/z: 910.492
Precursor type: [M+H]+
m/z	relative intensity	assigned
86.0961	24	C5H12N+
89.0707	1	C3H9N2O+
91.054	4	C7H7+
97.0888	1	C6H11N+
105.0696	1	C8H9+
107.0853	15	C8H11+
123.08	1	C8H11O+
124.112	11	C8H14N+
127.0862	6	C6H11N2O+
130.0498	1	C5H8NO3+
131.0852	2	C10H11+
135.08	63	C9H11O+
135.1162	8	C10H15+
138.0543	2	C7H8NO2+
143.0856	9	C11H11+
145.1008	4	C11H13+
147.1166	4	C11H15+
155.0808	18	C7H11N2O2+
157.1333	1	C8H17N2O+
161.0958	2	C11H13O+
163.1115	123	C11H15O+
164.1146	4	C4H14N5O2+
167.0812	1	C8H11N2O2+
172.1078	2	C7H14N3O2+
173.0915	31	C7H13N2O3+
175.1116	7	C12H15O+
176.1145	1	C5H14N5O2+
185.128	2	C9H17N2O2+
195.076	69	C9H11N2O3+
196.0795	2	C2H10N7O4+
200.1021	2	C8H14N3O3+
201.0863	11	C8H13N2O4+
209.132	4	C16H17+
210.0765	1	C10H12NO4+
213.0866	97	C9H13N2O4+
214.0898	4	C4H14N4O6+
218.1132	132	C8H16N3O4+
218.1536	18	C14H20NO+
219.1173	2	C3H17N5O6+
226.1587	15	C16H20N+
237.1228	10	C12H17N2O3+
237.1635	21	C18H21+
239.0659	5	C10H11N2O5+
243.1333	1	C11H19N2O4+
246.1485	23	C15H20NO2+
247.1482	2	C19H19+
250.1546	3	C13H20N3O2+
251.102	5	C12H15N2O4+
258.1848	211	C17H24NO+
259.1882	15	C12H25N3O3+
264.1587	2	C15H22NO3+
265.1582	58	C19H21O+
266.1615	6	C12H20N5O2+
268.1651	53	C13H22N3O3+
269.1123	1	C12H17N2O5+
269.169	2	C8H23N5O5+
269.1897	5	C19H25O+
272.1246	1	C11H18N3O5+
274.1435	4	C16H20NO3+
282.1848	10	C19H24NO+
284.1235	2	C12H18N3O5+
286.1755	4	C13H24N3O4+
292.1539	34	C16H22NO4+
293.1127	4	C14H17N2O5+
296.1241	2	C13H18N3O5+
297.1846	87	C20H25O2+
298.1883	6	C15H26N2O4+
309.181	3	C16H25N2O4+
310.1027	2	C13H16N3O6+
310.1645	7	C16H24NO5+
313.1866	10	C14H25N4O4+
314.1708	23	C14H24N3O5+
314.2108	20	C18H26N4O+
320.2002	14	C22H26NO+
324.1915	2	C16H26N3O4+
329.1861	8	C19H25N2O3+
330.1297	2	C13H20N3O7+
331.1972	240	C14H27N4O5+
332.2008	16	C23H26NO+
347.1961	51	C19H27N2O4+
348.1963	7	C9H28N6O8+
351.2022	4	C17H27N4O4+
352.2272	8	C23H30NO2+
357.1812	10	C6H27N7O10+
364.1508	4	C17H22N3O6+
366.2063	1	C23H28NO3+
375.1912	683	C20H27N2O5+
376.1942	70	C13H26N7O6+
380.2208	31	C22H28N4O2+
384.2238	58	C19H32N2O6+
385.2077	125	C17H29N4O6+
386.2112	9	C26H28NO2+
394.2013	15	C24H28NO4+
397.2079	43	C18H29N4O6+
398.2105	1	C25H26N4O+
400.2234	1	C22H30N3O4+
402.2343	999	C31H30+
403.2379	90	C26H31N2O2+
426.2274	29	C25H32NO5+
428.2169	1	C23H30N3O5+
431.2346	1	C13H33N7O9+
433.2445	5	C24H35NO6+
435.2227	4	C21H31N4O6+
436.2193	2	C20H30N5O6+
440.2491	14	C19H38NO10+
446.2283	334	C23H32N3O6+
447.2313	41	
449.2447	8	C28H29N6+
450.2345	5	C21H32N5O6+
455.2331	1	C29H31N2O3+
463.2595	9	C28H35N2O4+
467.2611	107	C21H35N6O6+
468.2447	469	C35H32O+
469.2477	49	C28H31N5O2+
477.238	120	C28H33N2O5+
478.2425	16	C23H34N4O7+
481.2695	9	C28H37N2O5+
485.2715	484	C35H35NO+
486.2755	55	C30H36N3O3+
491.2535	10	C26H37NO8+
508.2399	25	C37H32O2+
509.2641	434	C29H37N2O6+
510.2675	62	C23H42O12+
526.2934	4	C29H40N3O6+
531.3184	14	C30H45NO7+
533.2727	2	C27H39N3O8+
534.2542	1	C39H34O2+
541.3008	11	C28H45O10+
548.275	51	C31H38N3O6+
551.2808	17	C37H35N4O+
559.3118	424	
574.2877	2	C28H40N5O8+
579.2767	28	C26H39N6O9+
580.3011	222	C32H42N3O7+
581.3043	37	C27H43N5O9+
591.3496	35	
596.3031	60	C40H40N2O3+
597.2866	74	C38H37N4O3+
598.2902	12	
629.3642	5	C31H53N2O11+
635.3022	19	
642.3877	33	C36H54N2O8+
647.3773	18	C34H53N3O9+
658.3463	5	C35H50N2O10+
661.3586	31	C36H53O11+
662.3617	8	C44H46N4O2+
675.3711	54	C33H51N6O9+
676.3766	10	C30H54N5O12+
680.3241	51	C44H44N2O5+
681.3277	8	C39H45N4O7+
688.3542	44	
689.3555	9	C40H51NO9+
693.385	185	
694.3888	46	C33H54N6O10+
725.4223	92	
726.4257	21	C45H54N6O3+
730.4132	33	C36H56N7O9+
732.4057	8	C36H56N6O10+
741.3814	40	C37H53N6O10+
745.3757	3	C36H53N6O11+
758.4073	310	C37H56N7O10+
759.392	537	C37H55N6O11+
760.3941	127	C44H52N6O6+
776.4176	986	C37H58N7O11+
777.4209	230	C45H61O11+
790.4007	1	C42H56N5O10+
809.4436	17	C42H61N6O10+
810.444	4	C46H60N5O8+
822.4279	21	C43H60N5O11+
832.4592	5	C44H62N7O9+
846.4745	1	C42H66N6O12+
860.4529	23	C45H62N7O10+
861.441	28	C45H61N6O11+
862.4443	7	C45H62N6O11+
864.4825	15	C45H66N7O10+
866.4762	5	C45H66N6O11+
874.4707	8	C46H64N7O10+
875.4551	21	C46H63N6O11+
878.4651	69	C45H64N7O11+
882.4974	11	C45H68N7O11+
892.4805	190	C46H66N7O11+
893.469	167	C46H65N6O12+
910.4912	440	C46H68N7O12+
