Mass spectrum: Man7GlcNAc-I; LC-ESI-QQ; MS2; CE:40V; ODS
Name: Man7GlcNAc-I
Name: Man-alpha-1-2Man-alpha-1-6(Man-alpha-1-3)Man-alpha-1-6(Man-alpha-1-2Man-alpha-1-3)Man-beta-1-4GlcNAc
Class: Natural Product; Oligosaccharide; N-linked glycan; High-mannose type
Formula: C50H85NO41
Exact mass: 1355.45970
SMILES: C(C1OC(O2)C(O)C(OC(C7OC(C8O)OC(CO)C(O)C(O)8)OC(CO)C(C7O)O)C(C(COC(O3)C(C(OC(C(O)6)OC(C(C6O)O)CO)C(O)C3COC(C(OC(C5O)OC(C(O)C5O)CO)4)OC(CO)C(C4O)O)O)2)O)(O)C(NC(C)=O)C(OC1CO)O
InChI: InChI=1/C50H85NO41/c1-10(58)51-19-27(66)38(16(7-57)80-43(19)77)88-48-37(76)40(90-50-42(32(71)24(63)15(6-56)85-50)92-47-35(74)30(69)22(61)13(4-54)83-47)26(65)18(87-48)8-78-44-36(75)39(89-45-33(72)28(67)20(59)11(2-52)81-45)25(64)17(86-44)9-79-49-41(31(70)23(62)14(5-55)84-49)91-46-34(73)29(68)21(60)12(3-53)82-46/h11-50,52-57,59-77H,2-9H2,1H3,(H,51,58)/t11-,12-,13-,14-,15-,16-,17-,18-,19-,20-,21-,22-,23-,24-,25-,26-,27-,28+,29+,30+,31+,32+,33+,34+,35+,36+,37+,38-,39+,40+,41+,42+,43-,44+,45-,46-,47-,48+,49+,50-/m1/s1/f/h51H
Instrument: 2695 HPLC Quadro Micro API, Waters
Instrument type: LC-ESI-QQ
Ms type: MS2
Ion mode: POSITIVE
Collision energy: 40.0 V
Ionization: ESI
Column name: Wakosil 5C18-200 2.0 mm X 250 mm (Wako)
Retention time: 12.165 min
Derivative form: C59H96N2O42
Derivative mass: 1504.54377
Derivative type: ABEE (p-Aminobenzoic acid ethyl ester)
Precursor m/z: 1505.30
Precursor type: [M+H]+
m/z	relative intensity
325.0	70
370.3	117
370.9	999
371.5	168
372.4	57
532.8	299
533.6	115
694.9	74
695.7	39
856.0	79
857.3	200
858.4	92
1018.5	45
1019.6	82
1180.5	34
1343.4	37
1504.5	47
1505.4	36
