Mass spectrum: Man7GlcNAc-II; LC-ESI-QQ; MS2; CE:40V; Amide
Name: Man7GlcNAc-II
Name: Man-alpha-1-6(Man-alpha-1-3)Man-alpha-1-6(Man-alpha-1-2Man-alpha-1-2Man-alpha-1-3)Man-beta-1-4GlcNAc
Class: Natural Product; Oligosaccharide; N-linked glycan; High-mannose type
Formula: C50H85NO41
Exact mass: 1355.45970
SMILES: C(O2)(C(O)C(OC(O8)C(O)C(C(O)C8CO)O)C(O)C2OCC(C4O)OC(C(O)C4OC(O7)C(C(O)C(C(CO)7)O)OC(C5OC(C6O)OC(CO)C(C6O)O)OC(C(C(O)5)O)CO)OC(C3CO)C(O)C(C(O)O3)NC(C)=O)COC(C(O)1)OC(C(O)C(O)1)CO
InChI: InChI=1/C50H85NO41/c1-10(58)51-19-27(66)38(16(7-57)80-43(19)77)88-48-37(76)40(90-49-42(32(71)24(63)14(5-55)84-49)92-50-41(31(70)23(62)15(6-56)85-50)91-47-35(74)30(69)22(61)13(4-54)83-47)26(65)18(87-48)9-79-45-36(75)39(89-46-34(73)29(68)21(60)12(3-53)82-46)25(64)17(86-45)8-78-44-33(72)28(67)20(59)11(2-52)81-44/h11-50,52-57,59-77H,2-9H2,1H3,(H,51,58)/t11-,12-,13-,14-,15-,16-,17-,18-,19-,20-,21-,22-,23-,24-,25-,26-,27-,28+,29+,30+,31+,32+,33+,34+,35+,36+,37+,38-,39+,40+,41+,42+,43-,44+,45+,46-,47-,48+,49-,50-/m1/s1/f/h51H
Instrument: 2695 HPLC Quadro Micro API, Waters
Instrument type: LC-ESI-QQ
Ms type: MS2
Ion mode: POSITIVE
Collision energy: 40.0 V
Ionization: ESI
Column name: TSK-GEL Amide-80 2.0 mm X 250 mm (TOSOH)
Retention time: 31.664 min
Derivative form: C59H96N2O42
Derivative mass: 1504.54377
Derivative type: ABEE (p-Aminobenzoic acid ethyl ester)
Precursor m/z: 1505.30
Precursor type: [M+H]+
m/z	relative intensity
325.0	88
370.3	212
371.0	999
371.8	129
372.4	59
487.0	43
532.6	385
533.5	237
534.2	56
694.4	89
695.2	132
696.2	56
855.9	49
857.2	93
858.1	52
1018.3	68
1019.1	157
1019.9	56
1180.9	51
1181.9	43
1343.0	60
1505.3	48
1506.2	49
