Mass spectrum: Microcystin-LF; LC-ESI-QFT; MS2; CE: 45; R=35000; [M-H]-
Name: Microcystin-LF
Name: 15-benzyl-18-[(1E,3E)-6-methoxy-3,5-dimethyl-7-phenylhepta-1,3-dienyl]-1,5,12,19-tetramethyl-2-methylidene-8-(2-methylpropyl)-3,6,9,13,16,20,25-heptaoxo-1,4,7,10,14,17,21-heptazacyclopentacosane-11,22-dicarboxylic acid
Formula: C52H71N7O12
Exact mass: 985.51607
SMILES: O=C(O)C2NC(=O)C(NC(=O)C(NC(=O)\C(=C)N(C(=O)CCC(C(=O)O)NC(=O)C(C)C(\C=C\C(=C\C(C)C(OC)Cc1ccccc1)C)NC(=O)C(NC(=O)C2C)Cc3ccccc3)C)C)CC(C)C
InChI: InChI=1S/C52H71N7O12/c1-29(2)25-40-50(66)58-44(52(69)70)33(6)46(62)56-41(27-36-17-13-11-14-18-36)49(65)54-38(22-21-30(3)26-31(4)42(71-10)28-37-19-15-12-16-20-37)32(5)45(61)55-39(51(67)68)23-24-43(60)59(9)35(8)48(64)53-34(7)47(63)57-40/h11-22,26,29,31-34,38-42,44H,8,23-25,27-28H2,1-7,9-10H3,(H,53,64)(H,54,65)(H,55,61)(H,56,62)(H,57,63)(H,58,66)(H,67,68)(H,69,70)/b22-21+,30-26+
Instrument: Q Exactive Orbitrap Thermo Scientific
Instrument type: LC-ESI-QFT
Ms type: MS2
Ion mode: NEGATIVE
Ionization: ESI
Fragmentation mode: HCD
Collision energy: 45 (nominal)
Resolution: 35000
Column name: XBridge C18 3.5um, 2.1x50mm, Waters
Retention time: 14.0 min
Base peak: 984.5099
Precursor m/z: 984.5088
Precursor type: [M-H]-
m/z	relative intensity	assigned
70.0298	2	C3H4NO-
71.0139	2	C3H3O2-
71.025	5	C2H3N2O-
71.0503	2	C4H7O-
72.0091	4	C2H2NO2-
72.0455	28	C3H6NO-
73.0295	26	C3H5O2-
74.0247	52	C2H4NO2-
80.0506	5	C5H6N-
81.0459	1	C4H5N2-
82.0173	2	C3H2N2O-
82.0298	31	C4H4NO-
82.0662	15	C5H8N-
83.0252	1	C3H3N2O-
84.0455	67	C4H6NO-
84.082	3	C5H10N-
85.0295	2	C4H5O2-
85.0408	5	C3H5N2O-
86.0247	4	C3H4NO2-
86.0612	4	C4H8NO-
87.0564	32	C3H7N2O-
88.0404	10	C3H6NO2-
91.0553	4	C7H7-
94.0298	3	C5H4NO-
94.0662	3	C6H8N-
95.0251	7	C4H3N2O-
95.0376	2	C5H5NO-
96.0328	1	C4H4N2O-
96.0455	11	C5H6NO-
96.0819	5	C6H10N-
97.0044	2	C3HN2O2-
97.0408	11	C4H5N2O-
97.0658	1	C6H9O-
98.0121	4	C3H2N2O2-
98.0248	15	C4H4NO2-
98.0611	18	C5H8NO-
99.0564	133	C4H7N2O-
100.004	9	C3H2NO3-
100.0404	29	C4H6NO2-
100.0768	2	C5H10NO-
101.072	9	C4H9N2O-
102.056	6	C4H8NO2-
106.0662	1	C7H8N-
107.0615	1	C6H7N2-
108.0327	4	C5H4N2O-
108.0455	7	C6H6NO-
109.0171	4	C5H3NO2-
109.0408	11	C5H5N2O-
109.0772	8	C6H9N2-
110.0247	617	C5H4NO2-
111.0199	10	C4H3N2O2-
111.0281	17	H5N3O4-
111.0322	1	C5H5NO2-
111.0563	7	C5H7N2O-
112.0404	91	C5H6NO2-
112.0768	18	C6H10NO-
113.0357	31	C4H5N2O2-
113.0438	3	H7N3O4-
113.072	1	C5H9N2O-
114.0925	3	C6H12NO-
116.0506	7	C8H6N-
118.0663	8	C8H8N-
119.05	3	C8H7O-
120.0819	2	C8H10N-
121.0532	4	C7H7NO-
122.0248	4	C6H4NO2-
122.0486	16	C6H6N2O-
122.061	9	C7H8NO-
122.0975	6	C8H12N-
123.0327	16	C6H5NO2-
123.0564	48	C6H7N2O-
124.0403	128	C6H6NO2-
125.0244	2	C6H5O3-
125.0356	15	C5H5N2O2-
125.0597	3	C5H7N3O-
125.072	20	C6H9N2O-
126.056	6	C6H8NO2-
126.0925	1	C7H12NO-
127.0514	100	C5H7N2O2-
127.0877	16	C6H11N2O-
128.0353	999	C5H6NO3-
129.0386	29	H7N3O5-
129.1033	196	C6H13N2O-
130.0509	11	C5H8NO3-
130.0872	24	C6H12NO2-
130.1067	5	CH14N4O3-
131.0865	46	C10H11-
132.0899	2	C5H12N2O2-
135.0565	8	C7H7N2O-
136.0404	7	C7H6NO2-
136.064	2	C7H8N2O-
136.0767	6	C8H10NO-
136.1131	12	C9H14N-
137.0482	2	C7H7NO2-
137.0591	1	C6H7N3O-
137.0719	9	C7H9N2O-
138.0435	15	C6H6N2O2-
138.056	15	C7H8NO2-
138.0925	2	C8H12NO-
139.0876	130	C7H11N2O-
140.0717	12	C7H10NO2-
140.108	4	C8H14NO-
141.067	8	C6H9N2O2-
141.1034	1	C7H13N2O-
142.0508	8	C6H8NO3-
145.0616	4	C5H9N2O3-
146.061	34	C9H8NO-
147.0644	3	C4H9N3O3-
148.0767	3	C9H10NO-
149.072	7	C8H9N2O-
150.0559	32	C8H8NO2-
150.0924	4	C9H12NO-
151.0511	2	C7H7N2O2-
151.0875	5	C8H11N2O-
151.1239	1	C9H15N2-
152.0717	2	C8H10NO2-
152.0829	9	C7H10N3O-
153.0668	133	C7H9N2O2-
153.1032	17	C8H13N2O-
154.0696	4	H8N7O3-
154.0748	1	C7H10N2O2-
154.0872	1	C8H12NO2-
154.0985	4	C7H12N3O-
155.0825	71	C7H11N2O2-
155.1188	15	C8H15N2O-
156.0859	2	C2H12N4O4-
157.0979	2	C7H13N2O2-
157.1345	5	C8H17N2O-
158.0978	4	C11H12N-
159.0818	4	C11H11O-
162.0924	1	C10H12NO-
163.0876	4	C9H11N2O-
164.0596	3	C8H8N2O2-
164.0716	4	C9H10NO2-
164.0827	2	C8H10N3O-
165.0669	14	C8H9N2O2-
165.1031	196	C9H13N2O-
166.0506	1	C8H8NO3-
166.0873	7	C9H12NO2-
166.0985	8	C8H12N3O-
166.1065	12	C4H14N4O3-
167.0824	36	C8H11N2O2-
167.1188	7	C9H15N2O-
169.0981	2	C8H13N2O2-
169.1344	5	C9H17N2O-
170.0931	33	C7H12N3O2-
171.0773	2	C7H11N2O3-
171.1135	7	C8H15N2O2-
171.1183	4	C13H15-
173.072	2	C10H9N2O-
175.0874	1	C10H11N2O-
177.0668	1	C9H9N2O2-
177.1032	3	C10H13N2O-
179.1188	5	C10H15N2O-
180.0779	5	C8H10N3O2-
180.103	5	C10H14NO2-
180.1141	76	C9H14N3O-
181.0618	10	C8H9N2O3-
181.0984	10	C9H13N2O2-
181.1177	4	C4H15N5O3-
181.1345	1	C10H17N2O-
182.1296	139	C9H16N3O-
183.1136	24	C9H15N2O2-
183.1328	6	C4H17N5O3-
184.0615	4	C8H10NO4-
184.1092	1	C8H14N3O2-
185.129	1	C9H17N2O2-
186.0922	2	C12H12NO-
189.0667	7	C10H9N2O2-
193.0979	1	C10H13N2O2-
194.1298	3	C10H16N3O-
195.1135	5	C10H15N2O2-
196.1453	3	C10H18N3O-
197.0607	2	C13H9O2-
197.1299	3	C10H17N2O2-
198.1246	20	C9H16N3O2-
200.1404	71	C9H18N3O2-
201.1033	3	C12H13N2O-
201.1244	1	C9H17N2O3-
201.144	4	C4H19N5O4-
205.0981	1	C11H13N2O2-
208.1088	8	C10H14N3O2-
211.0723	4	C9H11N2O4-
212.1407	5	C10H18N3O2-
213.1032	2	C13H13N2O-
214.0874	2	C13H12NO2-
