Mass spectrum: Microcystin-YR; LC-ESI-QFT; MS2; CE: 45; R=35000; [M-H]-
Name: Microcystin-YR
Name: (5R,8S,11R,12R,15S,18S,19S,22R)-15-[3-(diaminomethylideneamino)propyl]-8-[(4-hydroxyphenyl)methyl]-18-[(1E,3E,5S,6S)-6-methoxy-3,5-dimethyl-7-phenylhepta-1,3-dienyl]-1,5,12,19-tetramethyl-2-methylidene-3,6,9,13,16,20,25-heptaoxo-1,4,7,10,14,17,21-heptazacyclopentacosane-11,22-dicarboxylic acid
Formula: C52H72N10O13
Exact mass: 1044.52803
SMILES: O=C2N[C@@H](\C=C\C(=C\[C@H](C)[C@@H](OC)Cc1ccccc1)C)[C@@H](C(=O)N[C@@H](C(=O)O)CCC(=O)N(/C(=C)C(=O)N[C@@H](C(=O)N[C@H](C(=O)N[C@@H](C(=O)O)[C@H](C(=O)N[C@H]2CCC/N=C(\N)N)C)Cc3ccc(O)cc3)C)C)C
InChI: InChI=1S/C52H72N10O13/c1-28(25-29(2)41(75-8)27-34-13-10-9-11-14-34)16-21-37-30(3)44(65)59-39(50(71)72)22-23-42(64)62(7)33(6)47(68)56-32(5)46(67)60-40(26-35-17-19-36(63)20-18-35)49(70)61-43(51(73)74)31(4)45(66)58-38(48(69)57-37)15-12-24-55-52(53)54/h9-11,13-14,16-21,25,29-32,37-41,43,63H,6,12,15,22-24,26-27H2,1-5,7-8H3,(H,56,68)(H,57,69)(H,58,66)(H,59,65)(H,60,67)(H,61,70)(H,71,72)(H,73,74)(H4,53,54,55)/b21-16+,28-25+/t29-,30-,31+,32+,37-,38-,39+,40-,41-,43+/m0/s1
Instrument: Q Exactive Orbitrap Thermo Scientific
Instrument type: LC-ESI-QFT
Ms type: MS2
Ion mode: NEGATIVE
Ionization: ESI
Fragmentation mode: HCD
Collision energy: 45 (nominal)
Resolution: 35000
Column name: XBridge C18 3.5um, 2.1x50mm, Waters
Retention time: 10.0 min
Base peak: 1043.5209
Precursor m/z: 1043.5208
Precursor type: [M-H]-
m/z	relative intensity	assigned
72.0092	2	C2H2NO2-
72.0455	23	C3H6NO-
73.0295	18	C3H5O2-
73.0407	45	C2H5N2O-
74.0247	41	C2H4NO2-
80.0506	10	C5H6N-
81.0459	4	C4H5N2-
82.0298	28	C4H4NO-
83.0251	29	C3H3N2O-
83.0615	1	C4H7N2-
84.0455	45	C4H6NO-
85.0295	1	C4H5O2-
85.0408	8	C3H5N2O-
86.0248	4	C3H4NO2-
86.0611	4	C4H8NO-
87.0564	40	C3H7N2O-
88.0404	5	C3H6NO2-
91.0553	1	C7H7-
93.0346	20	C6H5O-
94.03	2	C5H4NO-
94.0663	1	C6H8N-
95.0251	3	C4H3N2O-
96.0456	9	C5H6NO-
97.0408	13	C4H5N2O-
98.0121	4	C3H2N2O2-
98.0248	15	C4H4NO2-
98.0611	16	C5H8NO-
99.02	47	C3H3N2O2-
99.0564	101	C4H7N2O-
100.0041	5	C3H2NO3-
100.0404	20	C4H6NO2-
101.0357	4	C3H5N2O2-
101.0721	3	C4H9N2O-
102.056	6	C4H8NO2-
106.0425	3	C7H6O-
107.0503	11	C7H7O-
107.0614	1	C6H7N2-
108.0216	1	C6H4O2-
108.0328	4	C5H4N2O-
108.0454	7	C6H6NO-
108.0566	1	C5H6N3-
108.0818	3	C7H10N-
109.0408	530	C5H5N2O-
110.0248	190	C5H4NO2-
110.0611	11	C6H8NO-
111.0201	9	C4H3N2O2-
111.0564	13	C5H7N2O-
112.0404	79	C5H6NO2-
112.0769	5	C6H10NO-
112.088	5	C5H10N3-
113.0357	85	C4H5N2O2-
113.0721	10	C5H9N2O-
115.0514	11	C4H7N2O2-
119.0502	87	C8H7O-
120.0455	5	C7H6NO-
121.0297	1	C7H5O2-
121.0407	1	C6H5N2O-
121.0532	1	C7H7NO-
121.077	1	C7H9N2-
122.0248	3	C6H4NO2-
122.0611	9	C7H8NO-
122.0976	6	C8H12N-
123.0564	45	C6H7N2O-
124.0404	113	C6H6NO2-
124.0516	23	C5H6N3O-
125.0356	20	C5H5N2O2-
125.072	24	C6H9N2O-
126.0561	5	C6H8NO2-
126.0673	37	C5H8N3O-
127.0514	69	C5H7N2O2-
127.0878	10	C6H11N2O-
128.0353	999	C5H6NO3-
129.0388	4	H7N3O5-
129.067	6	C5H9N2O2-
130.051	14	C5H8NO3-
130.0985	10	C5H12N3O-
131.0866	43	C10H11-
132.0456	1	C8H6NO-
133.0534	5	C8H7NO-
134.0611	19	C8H8NO-
135.0451	3	C8H7O2-
135.0564	11	C7H7N2O-
136.0405	8	C7H6NO2-
136.0517	5	C6H6N3O-
136.0769	8	C8H10NO-
137.0355	1	C6H5N2O2-
137.0482	4	C7H7NO2-
137.0594	1	C6H7N3O-
137.072	11	C7H9N2O-
137.1084	1	C8H13N2-
138.0435	13	C6H6N2O2-
138.056	13	C7H8NO2-
138.0673	9	C6H8N3O-
138.0926	1	C8H12NO-
139.0514	21	C6H7N2O2-
139.0751	1	C6H9N3O-
139.0876	10	C7H11N2O-
140.0716	7	C7H10NO2-
140.0829	12	C6H10N3O-
141.067	17	C6H9N2O2-
142.0509	6	C6H8NO3-
142.062	42	C5H8N3O2-
144.0777	141	C5H10N3O2-
145.0614	5	C5H9N2O3-
146.061	1	C9H8NO-
147.0452	3	C9H7O2-
148.0767	4	C9H10NO-
149.0719	12	C8H9N2O-
150.0559	39	C8H8NO2-
151.0512	4	C7H7N2O2-
151.0876	11	C8H11N2O-
152.0464	6	C6H6N3O2-
152.0719	4	C8H10NO2-
152.0829	21	C7H10N3O-
153.0668	137	C7H9N2O2-
153.1032	7	C8H13N2O-
154.062	4	C6H8N3O2-
154.0985	13	C7H12N3O-
155.0826	9	C7H11N2O2-
155.0935	6	C6H11N4O-
156.0778	36	C6H10N3O2-
157.0529	1	C10H7NO-
158.0933	8	C6H12N3O2-
160.0403	5	C9H6NO2-
161.0719	1	C9H9N2O-
162.056	281	C9H8NO2-
163.0395	3	C9H7O3-
163.0876	17	C9H11N2O-
164.0592	3	C8H8N2O2-
164.0717	11	C9H10NO2-
164.0827	2	C8H10N3O-
165.0668	17	C8H9N2O2-
165.0776	1	C7H9N4O-
165.1034	1	C9H13N2O-
166.051	1	C8H8NO3-
166.0621	12	C7H8N3O2-
166.0983	11	C8H12N3O-
167.0459	4	C7H7N2O3-
167.0824	42	C8H11N2O2-
168.041	5	C6H6N3O3-
168.0776	3	C7H10N3O2-
168.1142	15	C8H14N3O-
169.038	1	C7H7NO4-
169.0492	14	C6H7N3O3-
169.0616	1	C7H9N2O3-
169.098	5	C8H13N2O2-
170.057	44	C6H8N3O3-
170.0933	98	C7H12N3O2-
171.0773	5	C7H11N2O3-
171.118	9	C13H15-
172.0764	10	C11H10NO-
172.1204	1	C6H14N5O-
174.0559	1	C10H8NO2-
175.0509	1	C9H7N2O2-
176.0715	1	C10H10NO2-
177.0667	5	C9H9N2O2-
177.103	3	C10H13N2O-
178.0987	4	C9H12N3O-
179.0825	40	C9H11N2O2-
180.0666	9	C9H10NO3-
180.0776	13	C8H10N3O2-
180.1142	33	C9H14N3O-
181.0619	16	C8H9N2O3-
181.0982	47	C9H13N2O2-
182.0936	7	C8H12N3O2-
182.1047	1	C7H12N5O-
183.0774	1	C8H11N2O3-
184.0615	7	C8H10NO4-
184.0724	5	C7H10N3O3-
184.1089	12	C8H14N3O2-
186.1248	3	C8H16N3O2-
189.0668	1	C10H9N2O2-
190.0875	1	C11H12NO2-
191.0823	1	C10H11N2O2-
192.0778	3	C9H10N3O2-
193.1095	3	C9H13N4O-
194.0938	5	C9H12N3O2-
194.1296	4	C10H16N3O-
195.0776	1	C9H11N2O3-
195.1139	3	C10H15N2O2-
195.1247	1	C9H15N4O-
196.1095	5	C9H14N3O2-
197.1331	1	C15H17-
198.0886	4	C8H12N3O3-
198.0995	3	C7H12N5O2-
198.1247	23	C9H16N3O2-
199.0721	1	C8H11N2O4-
203.0825	1	C11H11N2O2-
205.0616	6	C10H9N2O3-
205.0984	11	C11H13N2O2-
205.1094	7	C10H13N4O-
206.0934	24	C10H12N3O2-
206.1299	1	C11H16N3O-
207.0775	9	C10H11N2O3-
207.1141	3	C11H15N2O2-
208.1092	6	C10H14N3O2-
209.1044	132	C9H13N4O2-
210.0887	7	C9H12N3O3-
210.1249	3	C10H16N3O2-
210.1356	1	C9H16N5O-
211.0725	17	C9H11N2O4-
211.1091	1	C10H15N2O3-
211.1197	2	C9H15N4O2-
215.0827	6	C12H11N2O2-
215.151	1	C9H19N4O2-
216.0667	5	C12H10NO3-
220.1095	3	C11H14N3O2-
221.0933	4	C11H13N2O3-
222.1246	3	C11H16N3O2-
222.1361	4	C10H16N5O-
223.1095	2	C11H15N2O3-
223.1201	9	C10H15N4O2-
224.1037	3	C10H14N3O3-
224.1441	1	C16H18N-
226.1073	4	C9H14N4O3-
227.115	112	C9H15N4O3-
230.0821	1	C13H12NO3-
231.089	6	C11H11N4O2-
233.093	3	C12H13N2O3-
237.0996	3	C10H13N4O3-
237.1651	5	C18H21-
238.1197	1	C11H16N3O3-
239.104	1	C11H15N2O4-
245.0936	1	C13H13N2O3-
248.1039	4	C12H14N3O3-
248.1158	3	C11H14N5O2-
250.1197	12	C12H16N3O3-
251.1152	1	C11H15N4O3-
