Mass spectrum: Albendazole; LC-ESI-QTOF; MS2; CE: Ramp 20.4-30.6 eV; R=35000; [M+H]+
Name: Albendazole
Name: methyl N-(6-propylsulfanyl-1H-benzimidazol-2-yl)carbamate
Formula: C12H15N3O2S
Exact mass: 265.0885
SMILES: CCCSc1ccc2c(c1)nc([nH]2)NC(=O)OC
InChI: InChI=1S/C12H15N3O2S/c1-3-6-18-8-4-5-9-10(7-8)14-11(13-9)15-12(16)17-2/h4-5,7H,3,6H2,1-2H3,(H2,13,14,15,16)
Instrument: Bruker maXis Impact
Instrument type: LC-ESI-QTOF
Ms type: MS2
Ion mode: POSITIVE
Ionization: ESI
Fragmentation mode: CID
Collision energy: Ramp 20.4-30.6 eV
Resolution: 35000
Column name: Acclaim RSLC C18 2.2um, 2.1x100mm, Thermo
Retention time: 9.5 min
Base peak: 377.0063
Precursor m/z: 266.0958
Precursor type: [M+H]+
m/z	relative intensity	assigned
59.049	5	C3H7O+
159.043	41	C8H5N3O+
191.0156	186	C10H7O2S+
192.0228	154	C8H6N3OS+
193.0114	8	C12H3NO2+
193.0255	12	C11H3N3O+
223.0418	7	C9H9N3O2S+
234.0709	999	C11H12N3OS+
235.0738	144	C11H13N3OS+
236.0675	36	C11H12N2O2S+
266.0973	212	C12H16N3O2S+
267.1003	37	C11H15N4O2S+
268.0936	10	C11H16N4O2S+
