Mass spectrum: Cosmosiin; LC-ESI-QTOF; MS2; CE:Ramp 5-60 eV; [2M-H]-
Name: apigenin-7-O-glucoside
Name: Apigetrin
Name: Apig_7_Glc
Name: 5-hydroxy-2-(4-hydroxyphenyl)-7-[(2S,3R,4S,5R,6R)-3,4,5-trihydroxy-6-(hydroxymethyl)oxan-2-yl]oxy-chromen-4-one
Name: Cosmosiin
Class: Natural Product
Formula: C21H20O10
Exact mass: 432.10565
SMILES: OCC(O1)C(O)C(O)C(O)C1Oc(c4)cc(O2)c(c(O)4)C(=O)C=C(c(c3)ccc(O)c3)2
InChI: InChI=1S/C21H20O10/c22-8-16-18(26)19(27)20(28)21(31-16)29-11-5-12(24)17-13(25)7-14(30-15(17)6-11)9-1-3-10(23)4-2-9/h1-7,16,18-24,26-28H,8H2/t16-,18-,19+,20-,21-/m1/s1
Instrument: UPLC Q-Tof Premier, Waters
Instrument type: LC-ESI-QTOF
Ms type: MS2
Ion mode: NEGATIVE
Collision energy: Ramp 5-60 eV
Ionization: ESI
Full scan fragment ion peak: 863.2
Ion type: [2M-H]-
m/z	relative intensity
268.0371	138
269.0449	111
431.0981	999
431.7748	10
431.9226	10
432.1012	45
863.2035	116
