Mass spectrum: Man4GlcNAc-IV; LC-ESI-QQ; MS2; CE:30V; Amide
Name: Man4GlcNAc-IV
Name: Man-alpha-1-6(Man-alpha-1-2Man-alpha-1-3)Man-beta-1-5GlcNAc
Class: Natural Product; Oligosaccharide; N-linked glycan; High-mannose type
Formula: C32H55NO26
Exact mass: 869.30123
SMILES: OCC(O1)C(C(O)C(C1OCC(O4)C(C(C(O)C4OC(C5O)C(OC(C5NC(C)=O)O)CO)OC(C2OC(O3)C(O)C(C(O)C(CO)3)O)OC(C(O)C2O)CO)O)O)O
InChI: InChI=1/C32H55NO26/c1-7(38)33-13-18(43)25(11(5-37)52-28(13)50)57-31-24(49)26(17(42)12(56-31)6-51-29-22(47)19(44)14(39)8(2-34)53-29)58-32-27(21(46)16(41)10(4-36)55-32)59-30-23(48)20(45)15(40)9(3-35)54-30/h8-32,34-37,39-50H,2-6H2,1H3,(H,33,38)/t8-,9-,10-,11-,12-,13-,14-,15-,16-,17-,18-,19+,20+,21+,22+,23+,24+,25-,26+,27+,28-,29+,30-,31+,32-/m1/s1/f/h33H
Instrument: 2695 HPLC Quadro Micro API, Waters
Instrument type: LC-ESI-QQ
Ms type: MS2
Ion mode: POSITIVE
Collision energy: 30.0 V
Ionization: ESI
Column name: TSK-GEL Amide-80 2.0 mm X 250 mm (TOSOH)
Retention time: 15.651 min
Derivative form: C41H66N2O27
Derivative mass: 1018.38529
Derivative type: ABEE (p-Aminobenzoic acid ethyl ester)
Precursor m/z: 1019.30
Precursor type: [M+H]+
m/z	relative intensity
324.8	55
370.3	150
370.9	999
371.6	191
372.4	49
532.2	141
532.9	414
533.7	153
694.2	59
695.1	142
695.9	41
856.4	143
857.1	66
857.9	117
858.6	33
1019.2	56
