Mass spectrum: Microcystin-LY; LC-ESI-QFT; MS2; CE: 30; R=35000; [M-H]-
Name: Microcystin-LY
Name: 15-[(4-hydroxyphenyl)methyl]-18-[(1Z,3E)-6-methoxy-3,5-dimethyl-7-phenylhepta-1,3-dienyl]-1,5,12,19-tetramethyl-2-methylidene-8-(2-methylpropyl)-3,6,9,13,16,20,25-heptaoxo-1,4,7,10,14,17,21-heptazacyclopentacosane-11,22-dicarboxylic acid
Formula: C52H71N7O13
Exact mass: 1001.51099
SMILES: O=C(O)C2NC(=O)C(NC(=O)C(NC(=O)\C(=C)N(C(=O)CCC(C(=O)O)NC(=O)C(C)C(/C=C\C(=C\C(C)C(OC)Cc1ccccc1)C)NC(=O)C(NC(=O)C2C)Cc3ccc(O)cc3)C)C)CC(C)C
InChI: InChI=1S/C52H71N7O13/c1-28(2)24-40-50(67)58-44(52(70)71)32(6)46(63)56-41(26-36-17-19-37(60)20-18-36)49(66)54-38(21-16-29(3)25-30(4)42(72-10)27-35-14-12-11-13-15-35)31(5)45(62)55-39(51(68)69)22-23-43(61)59(9)34(8)48(65)53-33(7)47(64)57-40/h11-21,25,28,30-33,38-42,44,60H,8,22-24,26-27H2,1-7,9-10H3,(H,53,65)(H,54,66)(H,55,62)(H,56,63)(H,57,64)(H,58,67)(H,68,69)(H,70,71)/b21-16-,29-25+
Instrument: Q Exactive Orbitrap Thermo Scientific
Instrument type: LC-ESI-QFT
Ms type: MS2
Ion mode: NEGATIVE
Ionization: ESI
Fragmentation mode: HCD
Collision energy: 30 (nominal)
Resolution: 35000
Column name: XBridge C18 3.5um, 2.1x50mm, Waters
Retention time: 12.5 min
Base peak: 1000.5046
Precursor m/z: 1000.5037
Precursor type: [M-H]-
m/z	relative intensity	assigned
72.0455	2	C3H6NO-
73.0295	4	C3H5O2-
74.0248	6	C2H4NO2-
82.0298	4	C4H4NO-
84.0455	5	C4H6NO-
86.0248	2	C3H4NO2-
87.0564	2	C3H7N2O-
88.0404	1	C3H6NO2-
96.0454	2	C5H6NO-
97.0409	1	C4H5N2O-
98.0248	2	C4H4NO2-
98.0612	1	C5H8NO-
99.02	2	C3H3N2O2-
99.0564	15	C4H7N2O-
100.004	4	C3H2NO3-
100.0404	11	C4H6NO2-
109.0406	1	C5H5N2O-
110.0248	86	C5H4NO2-
111.0563	1	C5H7N2O-
112.0404	14	C5H6NO2-
113.0358	3	C4H5N2O2-
119.0502	33	C8H7O-
122.0612	2	C7H8NO-
123.0565	9	C6H7N2O-
124.0404	64	C6H6NO2-
125.0356	2	C5H5N2O2-
125.072	2	C6H9N2O-
126.056	1	C6H8NO2-
127.0515	20	C5H7N2O2-
127.0879	2	C6H11N2O-
128.0354	999	C5H6NO3-
129.0668	2	C5H9N2O2-
129.1033	24	C6H13N2O-
130.0509	7	C5H8NO3-
130.0872	4	C6H12NO2-
131.0865	10	C10H11-
135.0565	2	C7H7N2O-
136.0404	2	C7H6NO2-
137.072	2	C7H9N2O-
138.0435	1	C6H6N2O2-
138.0561	7	C7H8NO2-
139.0876	13	C7H11N2O-
140.0718	4	C7H10NO2-
141.067	5	C6H9N2O2-
142.0508	3	C6H8NO3-
145.0296	1	C9H5O2-
145.0618	2	C5H9N2O3-
149.0355	4	C7H5N2O2-
149.0719	1	C8H9N2O-
150.0196	2	C7H4NO3-
150.0558	4	C8H8NO2-
152.0831	1	C7H10N3O-
153.0668	39	C7H9N2O2-
154.0141	1	C6H4NO4-
155.0826	21	C7H11N2O2-
159.0771	1	C6H11N2O3-
162.056	31	C9H8NO2-
165.0668	4	C8H9N2O2-
165.1032	25	C9H13N2O-
166.0873	3	C9H12NO2-
166.0984	1	C8H12N3O-
167.0458	4	C7H7N2O3-
167.0825	11	C8H11N2O2-
170.0933	14	C7H12N3O2-
171.0774	7	C7H11N2O3-
171.1134	4	C8H15N2O2-
177.1034	1	C10H13N2O-
179.0825	3	C9H11N2O2-
179.1188	3	C10H15N2O-
180.0778	2	C8H10N3O2-
180.103	2	C10H14NO2-
180.1144	4	C9H14N3O-
181.0619	16	C8H9N2O3-
181.0983	3	C9H13N2O2-
181.1348	1	C10H17N2O-
182.1298	8	C9H16N3O-
183.0771	1	C8H11N2O3-
183.1138	6	C9H15N2O2-
184.0613	22	C8H10NO4-
185.1298	1	C9H17N2O2-
189.0668	1	C10H9N2O2-
193.0617	1	C9H9N2O3-
195.1139	3	C10H15N2O2-
198.0884	6	C8H12N3O3-
198.1246	6	C9H16N3O2-
199.0725	2	C8H11N2O4-
200.1405	44	C9H18N3O2-
201.1244	1	C9H17N2O3-
205.0617	8	C10H9N2O3-
205.0983	3	C11H13N2O2-
208.1091	1	C10H14N3O2-
210.0885	3	C9H12N3O3-
211.0724	15	C9H11N2O4-
212.1403	8	C10H18N3O2-
222.1247	6	C11H16N3O2-
222.1614	1	C12H20N3O-
223.1089	2	C11H15N2O3-
226.1197	12	C10H16N3O3-
229.0984	1	C13H13N2O2-
230.0822	2	C13H12NO3-
237.1651	1	C18H21-
238.1198	1	C11H16N3O3-
239.1036	1	C11H15N2O4-
240.1354	9	C11H18N3O3-
265.1671	22	C13H21N4O2-
283.1777	7	C13H23N4O3-
