Mass spectrum: 6-Man4GlcNAc-II; LC-ESI-QQ; MS2; CE:30V; ODS
Name: 6-Man4GlcNAc-II
Name: Man-alpha-1-2Man-alpha-1-3Man-alpha-1-6Man-beta-1-8GlcNAc
Class: Natural Product; Oligosaccharide; N-linked glycan; High-mannose type
Formula: C32H55NO26
Exact mass: 869.30123
SMILES: OC(C4O)C(OC(C4OC(O5)C(O)C(C(O)C(CO)5)O)OC(C1O)C(C(CO)OC1OCC(O2)C(O)C(C(O)C(OC(C3O)C(OC(C3NC(C)=O)O)CO)2)O)O)CO
InChI: InChI=1/C32H55NO26/c1-7(38)33-13-18(43)25(11(5-37)52-28(13)50)57-31-23(48)20(45)16(41)12(56-31)6-51-29-24(49)26(17(42)10(4-36)53-29)58-32-27(21(46)15(40)9(3-35)55-32)59-30-22(47)19(44)14(39)8(2-34)54-30/h8-32,34-37,39-50H,2-6H2,1H3,(H,33,38)/t8-,9-,10-,11-,12-,13-,14-,15-,16-,17-,18-,19+,20+,21+,22+,23+,24+,25-,26+,27+,28-,29+,30-,31+,32-/m1/s1/f/h33H
Instrument: 2695 HPLC Quadro Micro API, Waters
Instrument type: LC-ESI-QQ
Ms type: MS2
Ion mode: POSITIVE
Collision energy: 30.0 V
Ionization: ESI
Column name: Wakosil 5C18-200 2.0 mm X 250 mm (Wako)
Retention time: 21.993 min
Derivative form: C41H66N2O27
Derivative mass: 1018.38529
Derivative type: ABEE (p-Aminobenzoic acid ethyl ester)
Precursor m/z: 1019.30
Precursor type: [M+H]+
m/z	relative intensity
367.4	37
370.2	131
371.0	841
371.7	126
372.3	103
532.2	427
533.0	999
533.9	358
694.0	53
694.8	221
695.7	97
856.5	32
857.3	82
1018.3	60
1019.2	129
