Mass spectrum: Man6GlcNAc-IV; LC-ESI-QQ; MS2; CE:30V; Amide
Name: Man6GlcNAc-IV
Name: Man-alpha-1-2Man-alpha-1-6Man-alpha-1-6(Man-alpha-1-2Man-alpha-1-3)Man-beta-1-4GlcNAc
Class: Natural Product; Oligosaccharide; N-linked glycan; High-mannose type
Formula: C44H75NO36
Exact mass: 1193.40688
SMILES: O(C2CO)C(OCC(C(O)3)OC(OCC(O4)C(C(OC(C(OC(C(O)7)OC(C(O)C7O)CO)6)OC(C(O)C6O)CO)C(O)C4OC(C5O)C(OC(O)C(NC(C)=O)5)CO)O)C(O)C3O)C(C(C(O)2)O)OC(C1O)OC(C(C(O)1)O)CO
InChI: InChI=1/C44H75NO36/c1-9(51)45-17-24(58)34(14(6-50)71-38(17)68)78-42-33(67)35(79-44-37(29(63)21(55)13(5-49)75-44)81-41-32(66)26(60)19(53)11(3-47)73-41)23(57)16(77-42)8-69-39-30(64)27(61)22(56)15(76-39)7-70-43-36(28(62)20(54)12(4-48)74-43)80-40-31(65)25(59)18(52)10(2-46)72-40/h10-44,46-50,52-68H,2-8H2,1H3,(H,45,51)/t10-,11-,12-,13-,14-,15-,16-,17-,18-,19-,20-,21-,22-,23-,24-,25+,26+,27+,28+,29+,30+,31+,32+,33+,34-,35+,36+,37+,38-,39+,40-,41-,42+,43+,44-/m1/s1/f/h45H
Instrument: 2695 HPLC Quadro Micro API, Waters
Instrument type: LC-ESI-QQ
Ms type: MS2
Ion mode: POSITIVE
Collision energy: 30.0 V
Ionization: ESI
Column name: TSK-GEL Amide-80 2.0 mm X 250 mm (TOSOH)
Retention time: 27.262 min
Derivative form: C53H86N2O37
Derivative mass: 1342.49094
Derivative type: ABEE (p-Aminobenzoic acid ethyl ester)
Precursor m/z: 1343.30
Precursor type: [M+H]+
m/z	relative intensity
370.8	999
371.6	527
372.4	194
532.2	120
532.9	298
533.7	217
694.9	211
695.8	110
856.2	326
857.4	892
858.4	199
1018.3	120
1019.2	339
1020.0	143
1180.4	233
1181.3	314
1182.1	218
1341.8	230
1342.5	586
1343.4	996
1344.3	566
1345.1	182
