Mass spectrum: Enrofloxacin; LC-ESI-QTOF; MS2; CE: Ramp 22.8-34.2 eV; R=35000; [M+H]+
Name: Enrofloxacin
Name: 1-cyclopropyl-7-(4-ethylpiperazin-4-ium-1-yl)-6-fluoro-4-oxoquinoline-3-carboxylate
Formula: C19H22FN3O3
Exact mass: 359.1645
SMILES: CCN1CCN(CC1)c2cc3c(cc2F)c(=O)c(cn3C4CC4)C(=O)O
InChI: InChI=1S/C19H22FN3O3/c1-2-21-5-7-22(8-6-21)17-10-16-13(9-15(17)20)18(24)14(19(25)26)11-23(16)12-3-4-12/h9-12H,2-8H2,1H3,(H,25,26)
Instrument: Bruker maXis Impact
Instrument type: LC-ESI-QTOF
Ms type: MS2
Ion mode: POSITIVE
Ionization: ESI
Fragmentation mode: CID
Collision energy: Ramp 22.8-34.2 eV
Resolution: 35000
Column name: Acclaim RSLC C18 2.2um, 2.1x100mm, Thermo
Retention time: 4.9 min
Base peak: 360.1732
Precursor m/z: 360.1718
Precursor type: [M+H]+
m/z	relative intensity	assigned
58.0648	9	C3H8N+
70.0649	20	C4H8N+
72.0804	116	C4H10N+
82.0651	12	C5H8N+
84.0807	20	C5H10N+
86.097	7	C5H12N+
203.062	22	C11H8FN2O+
204.07	30	C11H9FN2O+
231.0942	18	C13H12FN2O+
233.072	6	C12H10FN2O2+
245.1096	217	C14H14FN2O+
246.1122	30	C14H16NO3+
255.0569	6	C14H8FN2O2+
257.1078	8	C18H13N2+
258.0684	6	C15H11FO3+
261.1042	99	C14H14FN2O2+
262.1074	6	C17H14N2O+
277.0639	5	C19H7N3+
285.1284	6	C18H18FO2+
286.0997	49	C17H15FO3+
287.1003	6	C19H12FN2+
288.1527	8	C18H21FO2+
301.1224	5	C16H16FN3O2+
304.1116	6	C15H15FN3O3+
314.1318	5	C19H19FO3+
314.167	26	C18H21FN3O+
315.1713	5	C18H23N2O3+
316.1839	423	C18H23FN3O+
317.187	89	C16H23N5O2+
318.1628	124	C19H23FO3+
319.166	13	C17H22FN3O2+
320.1052	16	C18H14N3O3+
340.147	59	C19H19FN3O2+
341.1499	13	C19H20FN3O2+
342.1633	110	C19H21FN3O2+
343.1658	24	C19H22FN3O2+
358.1585	481	C19H21FN3O3+
359.1617	129	C19H22FN3O3+
360.1741	999	C19H23FN3O3+
361.1773	243	C17H23N5O4+
362.1529	59	C18H21FN3O4+
362.1765	19	C18H23FN4O3+
363.1497	36	C17H20FN4O4+
