Mass spectrum: Microcystin-LY; LC-ESI-QFT; MS2; CE: 30; R=35000; [M+H]+
Name: Microcystin-LY
Name: 15-[(4-hydroxyphenyl)methyl]-18-[(1Z,3E)-6-methoxy-3,5-dimethyl-7-phenylhepta-1,3-dienyl]-1,5,12,19-tetramethyl-2-methylidene-8-(2-methylpropyl)-3,6,9,13,16,20,25-heptaoxo-1,4,7,10,14,17,21-heptazacyclopentacosane-11,22-dicarboxylic acid
Formula: C52H71N7O13
Exact mass: 1001.51099
SMILES: O=C(O)C2NC(=O)C(NC(=O)C(NC(=O)\C(=C)N(C(=O)CCC(C(=O)O)NC(=O)C(C)C(/C=C\C(=C\C(C)C(OC)Cc1ccccc1)C)NC(=O)C(NC(=O)C2C)Cc3ccc(O)cc3)C)C)CC(C)C
InChI: InChI=1S/C52H71N7O13/c1-28(2)24-40-50(67)58-44(52(70)71)32(6)46(63)56-41(26-36-17-19-37(60)20-18-36)49(66)54-38(21-16-29(3)25-30(4)42(72-10)27-35-14-12-11-13-15-35)31(5)45(62)55-39(51(68)69)22-23-43(61)59(9)34(8)48(65)53-33(7)47(64)57-40/h11-21,25,28,30-33,38-42,44,60H,8,22-24,26-27H2,1-7,9-10H3,(H,53,65)(H,54,66)(H,55,62)(H,56,63)(H,57,64)(H,58,67)(H,68,69)(H,70,71)/b21-16-,29-25+
Instrument: Q Exactive Orbitrap Thermo Scientific
Instrument type: LC-ESI-QFT
Ms type: MS2
Ion mode: POSITIVE
Ionization: ESI
Fragmentation mode: HCD
Collision energy: 30 (nominal)
Resolution: 35000
Column name: XBridge C18 3.5um, 2.1x50mm, Waters
Retention time: 12.4 min
Base peak: 1002.5178
Precursor m/z: 1002.5183
Precursor type: [M+H]+
m/z	relative intensity	assigned
70.0652	5	C4H8N+
74.0234	2	C2H4NO2+
77.0385	5	C6H5+
79.0542	18	C6H7+
80.0492	1	C5H6N+
81.0699	5	C6H9+
82.0651	11	C5H8N+
84.0443	73	C4H6NO+
86.0964	643	C5H12N+
88.1121	1	C5H14N+
91.0541	115	C7H7+
93.0698	33	C7H9+
95.0491	11	C6H7O+
95.0855	22	C7H11+
96.0808	5	C6H10N+
98.0601	2	C5H8NO+
99.0917	7	C5H11N2+
101.0707	1	C4H9N2O+
102.0549	28	C4H8NO2+
103.0542	63	C8H7+
105.0699	93	C8H9+
107.0855	471	C8H11+
108.0807	3	C7H10N+
108.0889	1	C3H12N2O2+
109.0647	5	C7H9O+
109.1011	2	C8H13+
110.0601	10	C6H8NO+
110.0961	2	C7H12N+
112.0392	2	C5H6NO2+
112.0757	2	C6H10NO+
113.0713	1	C5H9N2O+
115.0542	10	C9H7+
117.0698	40	C9H9+
119.0492	2	C8H7O+
119.0854	18	C9H11+
121.0648	11	C8H9O+
121.1012	10	C9H13+
122.0964	7	C8H12N+
123.0803	9	C8H11O+
123.0916	1	C7H11N2+
124.0756	22	C7H10NO+
124.112	126	C8H14N+
126.055	5	C6H8NO2+
127.0865	326	C6H11N2O+
128.0619	2	C10H8+
128.0706	3	C6H10NO2+
129.0699	9	C10H9+
130.0499	29	C5H8NO3+
131.0855	53	C10H11+
131.1178	9	C6H15N2O+
133.0646	1	C9H9O+
133.1012	19	C10H13+
135.0804	904	C9H11O+
135.1167	400	C10H15+
136.0755	335	C8H10NO+
138.0548	122	C7H8NO2+
139.0865	1	C7H11N2O+
140.0704	14	C7H10NO2+
141.0699	2	C11H9+
141.1019	6	C7H13N2O+
143.0856	51	C11H11+
145.1011	32	C11H13+
146.06	2	C9H8NO+
146.0964	10	C10H12N+
146.1088	2	C11H14+
147.0808	2	C10H11O+
147.1168	7	C11H15+
149.0708	10	C8H9N2O+
149.0959	3	C10H13O+
150.0547	1	C8H8NO2+
150.0913	2	C9H12NO+
150.1279	10	C10H16N+
151.0861	2	C8H11N2O+
152.0704	14	C8H10NO2+
152.1067	6	C9H14NO+
155.0814	505	C7H11N2O2+
156.0652	3	C7H10NO3+
156.0848	2	C2H12N4O4+
157.1012	10	C12H13+
157.1335	84	C8H17N2O+
158.0966	1	C11H12N+
159.0802	2	C11H11O+
159.1167	17	C12H15+
160.1118	1	C11H14N+
161.0962	70	C11H13O+
161.1322	7	C12H17+
162.0911	2	C10H12NO+
162.1276	25	C11H16N+
163.1116	793	C11H15O+
164.0704	5	C9H10NO2+
164.1069	1	C10H14NO+
164.115	3	C4H14N5O2+
165.0909	6	C10H13O2+
167.0813	76	C8H11N2O2+
168.0656	13	C8H10NO3+
170.0809	7	C8H12NO3+
171.0804	15	C12H11O+
171.1169	16	C13H15+
171.149	5	C9H19N2O+
173.0963	45	C12H13O+
174.1038	6	C12H14O+
175.1116	12	C12H15O+
176.1068	2	C11H14NO+
178.1226	10	C11H16NO+
178.135	1	C12H18O+
180.1382	14	C11H18NO+
181.0964	56	C9H13N2O2+
181.1331	7	C10H17N2O+
182.0813	14	C9H12NO3+
183.0766	1	C8H11N2O3+
183.1165	3	C14H15+
185.0921	17	C8H13N2O3+
185.1281	73	C9H17N2O2+
186.076	3	C8H12NO4+
186.0911	2	C12H12NO+
187.1117	31	C13H15O+
188.1067	11	C12H14NO+
188.1433	7	C13H18N+
189.1275	2	C13H17O+
190.1225	26	C12H16NO+
190.1587	2	C13H20N+
191.1063	5	C12H15O2+
192.0655	1	C10H10NO3+
192.1014	3	C11H14NO2+
193.097	5	C10H13N2O2+
193.1218	2	C12H17O2+
194.1649	2	C11H20N3+
195.0762	169	C9H11N2O3+
195.1166	29	C15H15+
196.0603	23	C9H10NO4+
197.1276	15	C10H17N2O2+
197.1642	1	C11H21N2O+
198.076	8	C9H12NO4+
198.1484	2	C11H20NO2+
201.1271	5	C14H17O+
202.0858	2	C12H12NO2+
202.1583	2	C14H20N+
203.106	5	C13H15O2+
204.1382	10	C13H18NO+
206.1536	1	C13H20NO+
207.1161	8	C16H15+
210.0758	6	C10H12NO4+
210.1234	1	C10H16N3O2+
211.0711	2	C9H11N2O4+
213.0868	999	C9H13N2O4+
214.0707	9	C9H12NO5+
214.0902	1	C4H14N4O6+
215.1393	1	C10H19N2O3+
216.138	1	C14H18NO+
218.1538	119	C14H20NO+
219.1127	44	C12H15N2O2+
220.0967	5	C12H14NO3+
220.108	6	C11H14N3O2+
221.0918	12	C11H13N2O3+
221.1325	2	C17H17+
222.1599	8	C12H20N3O+
223.1074	30	C11H15N2O3+
225.1258	9	C14H15N3+
226.1588	98	C16H20N+
228.1378	12	C15H18NO+
229.1329	2	C14H17N2O+
230.1536	2	C15H20NO+
232.0968	6	C13H14NO3+
235.1078	8	C12H15N2O3+
235.1481	3	C18H19+
237.1232	97	C12H17N2O3+
237.1635	200	C18H21+
238.1188	9	C11H16N3O3+
239.066	69	C10H11N2O5+
239.1023	7	C11H15N2O4+
240.1707	12	C12H22N3O2+
241.0819	3	C10H13N2O5+
241.1192	1	C12H13N6+
242.1866	1	C12H24N3O2+
243.1338	115	C11H19N2O4+
244.1325	6	C15H18NO2+
245.1284	7	C14H17N2O2+
246.1487	203	C15H20NO2+
247.1075	107	C13H15N2O3+
247.1479	24	C19H19+
248.0914	16	C13H14NO4+
250.1547	35	C13H20N3O2+
251.1027	23	C12H15N2O4+
251.1391	6	C13H19N2O3+
253.1179	2	C12H17N2O4+
254.1499	1	C12H20N3O3+
254.1903	1	C18H24N+
256.2061	1	C18H26N+
257.1286	6	C15H17N2O2+
258.1851	166	C17H24NO+
259.1802	23	C16H23N2O+
260.1604	1	C11H22N3O4+
262.144	7	C15H20NO3+
263.2119	5	C16H27N2O+
264.1345	16	C13H18N3O3+
264.1593	21	C15H22NO3+
264.1731	2	C16H24O3+
265.1181	845	C13H17N2O4+
265.158	146	C17H19N3+
266.1123	21	C10H14N6O3+
267.0974	2	C12H15N2O5+
268.1653	207	C13H22N3O3+
269.1129	36	C12H17N2O5+
269.1894	13	C19H25O+
273.1233	7	C15H17N2O3+
274.1436	33	C16H20NO3+
275.1024	29	C14H15N2O4+
275.1751	33	C16H23N2O2+
276.0868	2	C14H14NO5+
282.185	65	C19H24NO+
284.124	16	C12H18N3O5+
285.1934	3	C13H25N4O3+
286.1767	2	C13H24N3O4+
287.1753	14	C17H23N2O2+
288.1596	3	C17H22NO3+
292.1289	56	C14H18N3O4+
292.154	74	C16H22NO4+
293.113	384	C14H17N2O5+
294.1452	10	C14H20N3O4+
294.1813	8	C15H24N3O3+
296.1597	2	C12H20N6O3+
297.1847	25	C20H25O2+
301.1907	8	C18H25N2O2+
303.1703	38	C17H23N2O3+
303.2066	6	C18H27N2O2+
306.1835	6	C19H22N4+
309.1807	10	C16H25N2O4+
310.1031	17	C13H16N3O6+
310.1396	183	C14H20N3O5+
311.1237	5	C14H19N2O6+
314.1711	20	C14H24N3O5+
314.211	10	C20H28NO2+
316.1548	2	C4H24N6O10+
319.2015	22	C18H27N2O3+
320.1605	30	C16H22N3O4+
320.2007	31	C22H26NO+
322.1395	14	C15H20N3O5+
324.1184	2	C14H18N3O6+
324.1915	8	C16H26N3O4+
325.2232	2	C16H29N4O3+
326.1722	2	C18H22N4O2+
329.1858	93	C19H25N2O3+
331.2015	7	C19H27N2O3+
334.1773	5	C17H24N3O4+
338.1713	2	C16H24N3O5+
340.1502	9	C15H22N3O6+
343.1664	12	C5H25N7O10+
345.1811	8	C5H27N7O10+
347.1965	172	C19H27N2O4+
348.1957	29	C23H26NO2+
351.2027	40	C17H27N4O4+
352.1871	6	C15H24N6O4+
357.1807	15	C20H25N2O4+
360.1917	52	C19H26N3O4+
361.1755	7	C19H25N2O5+
364.1503	31	C17H22N3O6+
366.1668	2	C18H20N7O2+
367.1652	9	C21H23N2O4+
375.1915	604	C20H27N2O5+
376.1938	8	C13H26N7O6+
378.2023	75	C19H28N3O5+
379.1973	12	C18H27N4O5+
380.2215	9	C24H30NO3+
382.2129	2	C22H28N3O3+
384.2282	46	C22H30N3O3+
388.1869	5	C20H26N3O5+
389.1708	9	C20H25N2O6+
394.2015	2	C24H28NO4+
395.1563	6	C19H25NO8+
397.2082	328	C18H29N4O6+
400.2236	25	C22H30N3O4+
405.2135	26	C20H29N4O5+
406.1971	45	C20H28N3O6+
407.2299	2	C22H33NO6+
411.2277	1	C24H31N2O4+
416.2183	7	C22H30N3O5+
418.2332	6	C22H32N3O5+
420.2495	1	C22H34N3O5+
423.224	47	C20H31N4O6+
428.2185	32	C23H30N3O5+
431.232	17	C25H29N5O2+
435.2243	2	C21H31N4O6+
443.2534	2	C25H35N2O5+
445.2468	1	C26H31N5O2+
446.2287	104	C23H32N3O6+
449.2402	58	C24H35NO7+
454.2331	10	C25H32N3O5+
463.2579	15	C26H33N5O3+
472.2437	15	C25H34N3O6+
477.2379	57	C26H31N5O4+
480.247	5	C24H36N2O8+
481.2674	2	C26H35N5O4+
494.2603	7	C37H34O+
508.2414	13	C25H36N2O9+
509.2652	27	
513.3065	15	C28H41N4O5+
525.2714	3	C28H37N4O6+
532.276	17	C40H36O+
562.2921	1	C33H36N7O2+
580.3007	8	C32H42N3O7+
585.3275	2	C31H45N4O7+
670.345	24	
721.3906	2	C37H57N2O12+
804.423	2	C51H56N4O5+
805.4132	3	C42H57N6O10+
833.4111	2	C47H61O13+
850.4345	6	C43H60N7O11+
940.5112	2	C48H72N6O13+
