Mass spectrum: Propranolol; LC-ESI-QTOF; MS2; CE: Ramp 20.2-30.2 eV; R=35000; [M+H]+
Name: Propranolol
Name: 1-naphthalen-1-yloxy-3-(propan-2-ylamino)propan-2-ol
Formula: C16H21NO2
Exact mass: 259.1572
SMILES: CC(C)NCC(COc1cccc2c1cccc2)O
InChI: InChI=1S/C16H21NO2/c1-12(2)17-10-14(18)11-19-16-9-5-7-13-6-3-4-8-15(13)16/h3-9,12,14,17-18H,10-11H2,1-2H3
Instrument: Bruker maXis Impact
Instrument type: LC-ESI-QTOF
Ms type: MS2
Ion mode: POSITIVE
Ionization: ESI
Fragmentation mode: CID
Collision energy: 	Ramp 20.2-30.2 eV
Resolution: 35000
Column name: Acclaim RSLC C18 2.2um, 2.1x100mm, Thermo
Retention time: 6.8 min
Base peak: 260.1658
Precursor m/z: 260.1645
Precursor type: [M+H]+
m/z	relative intensity	assigned
56.049	473	C3H6N+
58.0647	296	C3H8N+
60.0551	24	C3H8O+
60.08	16	C3H10N+
72.0803	581	C4H10N+
74.0597	633	C3H8NO+
84.0804	20	C5H10N+
86.0964	72	C5H12N+
90.0551	7	C3H8NO2+
98.0971	245	C6H12N+
99.1007	12	C6H13N+
100.1126	51	C6H14N+
115.0544	8	C9H7+
116.108	313	C6H14NO+
117.111	18	C6H15NO+
128.0618	11	C10H8+
129.0696	66	C10H9+
130.0735	8	C10H10+
132.1017	5	C6H14NO2+
141.0695	35	C11H9+
143.0494	15	C10H7O+
145.0646	64	C10H9O+
153.0698	33	C12H9+
154.0759	10	C12H10+
155.0857	215	C12H11+
156.089	26	C12H12+
157.0651	236	C11H9O+
158.0678	27	C11H10O+
165.0698	82	C13H9+
166.0734	11	C13H10+
168.0578	20	C12H8O+
169.0633	5	C12H9O+
171.0807	13	C12H11O+
182.0739	5	C13H10O+
183.0809	453	C13H11O+
184.0842	60	C13H12O+
185.0887	5	C12H11NO+
218.1186	109	C13H16NO2+
219.1218	12	C13H17NO2+
242.1553	11	C16H20NO+
260.1659	999	C16H22NO2+
261.1694	184	C15H21N2O2+
262.1719	15	C15H22N2O2+
